# File generated by Flopy version 3.3.5 on 03/04/2022 at 11:14:38.
BEGIN options
  DIGITS  10
  PRINT_INPUT
END options

BEGIN continuous  FILEOUT  ex-gwf-maw-p03.maw.obs.csv
  H0  HEAD  1
  Q00  maw  1  1
  Q01  maw  1  2
  Q02  maw  1  3
  Q03  maw  1  4
  Q04  maw  1  5
  Q05  maw  1  6
  Q06  maw  1  7
  Q07  maw  1  8
  Q08  maw  1  9
  Q09  maw  1  10
  Q10  maw  1  11
  Q11  maw  1  12
  Q12  maw  1  13
  Q13  maw  1  14
  Q14  maw  1  15
  Q15  maw  1  16
  Q16  maw  1  17
  Q17  maw  1  18
  Q18  maw  1  19
  Q19  maw  1  20
  Q20  maw  1  21
  Q21  maw  1  22
  Q22  maw  1  23
  Q23  maw  1  24
  Q24  maw  1  25
  Q25  maw  1  26
  Q26  maw  1  27
  Q27  maw  1  28
  Q28  maw  1  29
  Q29  maw  1  30
  Q30  maw  1  31
  Q31  maw  1  32
  Q32  maw  1  33
  Q33  maw  1  34
  Q34  maw  1  35
  Q35  maw  1  36
  Q36  maw  1  37
  Q37  maw  1  38
END continuous  FILEOUT  ex-gwf-maw-p03.maw.obs.csv

