# File generated by Flopy version 3.3.5 on 03/04/2022 at 11:14:38.
BEGIN options
  NO_WELL_STORAGE
  OBS6  FILEIN  ex-gwf-maw-p03.maw.obs
END options

BEGIN dimensions
  NMAWWELLS  1
END dimensions

BEGIN packagedata
  1       0.13330000     -65.00000000      10.00000000  SPECIFIED  38
END packagedata

BEGIN connectiondata
  1  1  1 16 14      10.00000000     -65.00000000       1.10888994    -999.00000000
  1  2  2 16 13      10.00000000     -65.00000000     832.49986139    -999.00000000
  1  3  2 15 14      10.00000000     -65.00000000    3329.99944556    -999.00000000
  1  4  2 16 15      10.00000000     -65.00000000     832.49986139    -999.00000000
  1  5  3 16 13      10.00000000     -65.00000000     832.49986139    -999.00000000
  1  6  3 15 14      10.00000000     -65.00000000    3329.99944556    -999.00000000
  1  7  3 16 15      10.00000000     -65.00000000     832.49986139    -999.00000000
  1  8  4 16 13      10.00000000     -65.00000000     832.49986139    -999.00000000
  1  9  4 15 14      10.00000000     -65.00000000    3329.99944556    -999.00000000
  1  10  4 16 15      10.00000000     -65.00000000     832.49986139    -999.00000000
  1  11  5 16 13      10.00000000     -65.00000000     832.49986139    -999.00000000
  1  12  5 15 14      10.00000000     -65.00000000    3329.99944556    -999.00000000
  1  13  5 16 15      10.00000000     -65.00000000     832.49986139    -999.00000000
  1  14  6 16 13      10.00000000     -65.00000000     832.49986139    -999.00000000
  1  15  6 15 14      10.00000000     -65.00000000    3329.99944556    -999.00000000
  1  16  6 16 15      10.00000000     -65.00000000     832.49986139    -999.00000000
  1  17  7 16 13      10.00000000     -65.00000000     832.49986139    -999.00000000
  1  18  7 15 14      10.00000000     -65.00000000    3329.99944556    -999.00000000
  1  19  7 16 15      10.00000000     -65.00000000     832.49986139    -999.00000000
  1  20  8 16 13      10.00000000     -65.00000000     832.49986139    -999.00000000
  1  21  8 15 14      10.00000000     -65.00000000    3329.99944556    -999.00000000
  1  22  8 16 15      10.00000000     -65.00000000     832.49986139    -999.00000000
  1  23  9 16 13      10.00000000     -65.00000000     832.49986139    -999.00000000
  1  24  9 15 14      10.00000000     -65.00000000    3329.99944556    -999.00000000
  1  25  9 16 15      10.00000000     -65.00000000     832.49986139    -999.00000000
  1  26  10 16 13      10.00000000     -65.00000000     832.49986139    -999.00000000
  1  27  10 15 14      10.00000000     -65.00000000    3329.99944556    -999.00000000
  1  28  10 16 15      10.00000000     -65.00000000     832.49986139    -999.00000000
  1  29  11 16 13      10.00000000     -65.00000000     832.49986139    -999.00000000
  1  30  11 15 14      10.00000000     -65.00000000    3329.99944556    -999.00000000
  1  31  11 16 15      10.00000000     -65.00000000     832.49986139    -999.00000000
  1  32  12 16 13      10.00000000     -65.00000000     832.49986139    -999.00000000
  1  33  12 15 14      10.00000000     -65.00000000    3329.99944556    -999.00000000
  1  34  12 16 15      10.00000000     -65.00000000     832.49986139    -999.00000000
  1  35  13 16 13      10.00000000     -65.00000000     832.49986139    -999.00000000
  1  36  13 15 14      10.00000000     -65.00000000    3329.99944556    -999.00000000
  1  37  13 16 15      10.00000000     -65.00000000     832.49986139    -999.00000000
  1  38  14 16 14      10.00000000     -65.00000000       1.10888994    -999.00000000
END connectiondata

