# Name file for MODFLOW-2005, generated by Flopy version 3.3.5.
#xll:0.0; yll:0.0; rotation:0.0; units:meters; lenuni:2; start_datetime:1-1-1970
LIST               2  flow.list
DIS               11  flow.dis
BAS6              13  flow.bas
LPF               15  flow.lpf
PCG               27  flow.pcg
LMT6              30  flow.lmt6
CHD               24  flow.chd
WEL               20  flow.wel
