# Name file for MT3DMS, generated by Flopy version 3.3.5.
LIST              16  p10-mt.list
FTL               10  mt3d_link.ftl 
BTN               31  p10-mt.btn
ADV               32  p10-mt.adv
DSP               33  p10-mt.dsp
SSM               34  p10-mt.ssm
RCT               36  p10-mt.rct
GCG               35  p10-mt.gcg
