# DIS package for MODFLOW-2005 generated by Flopy 3.3.5
         4        61        40         1         4         1
  0  0  0  0
INTERNAL               1  (40E15.6) -1 #delr                          
   2.000000E+03   1.600000E+03   8.000000E+02   4.000000E+02   2.000000E+02   1.000000E+02   5.000000E+01   5.000000E+01   5.000000E+01   5.000000E+01   5.000000E+01   5.000000E+01   5.000000E+01   5.000000E+01   5.000000E+01   5.000000E+01   5.000000E+01   5.000000E+01   5.000000E+01   5.000000E+01   5.000000E+01   5.000000E+01   5.000000E+01   5.000000E+01   5.000000E+01   5.000000E+01   5.000000E+01   5.000000E+01   5.000000E+01   5.000000E+01   5.000000E+01   5.000000E+01   5.000000E+01   5.000000E+01   1.000000E+02   2.000000E+02   4.000000E+02   8.000000E+02   1.600000E+03   2.000000E+03
INTERNAL               1  (61E15.6) -1 #delc                          
   2.000000E+03   2.000000E+03   2.000000E+03   1.600000E+03   8.000000E+02   4.000000E+02   2.000000E+02   1.000000E+02   5.000000E+01   5.000000E+01   5.000000E+01   5.000000E+01   5.000000E+01   5.000000E+01   5.000000E+01   5.000000E+01   5.000000E+01   5.000000E+01   5.000000E+01   5.000000E+01   5.000000E+01   5.000000E+01   5.000000E+01   5.000000E+01   5.000000E+01   5.000000E+01   5.000000E+01   5.000000E+01   5.000000E+01   5.000000E+01   5.000000E+01   5.000000E+01   5.000000E+01   5.000000E+01   5.000000E+01   5.000000E+01   5.000000E+01   5.000000E+01   5.000000E+01   5.000000E+01   5.000000E+01   5.000000E+01   5.000000E+01   5.000000E+01   5.000000E+01   5.000000E+01   5.000000E+01   5.000000E+01   5.000000E+01   5.000000E+01   5.000000E+01   5.000000E+01   5.000000E+01   1.000000E+02   2.000000E+02   4.000000E+02   8.000000E+02   1.600000E+03   2.000000E+03   2.000000E+03   2.000000E+03
CONSTANT    7.800000E+02                           #model_top                     
CONSTANT    7.550000E+02                           #botm layer 1                  
CONSTANT    7.300000E+02                           #botm layer 2                  
CONSTANT    7.050000E+02                           #botm layer 3                  
CONSTANT    6.800000E+02                           #botm layer 4                  
   1000.000000           100  1.000000  SS 
