# LPF package for MODFLOW-2005 generated by Flopy 3.3.5
         0    -1E+30         0  
         0         0         0         0
         0         0         0         0
   1.000000E+00   1.000000E+00   1.000000E+00   1.000000E+00
         1         1         1         1
         0         0         0         0
CONSTANT    6.000000E+01                           #hk layer 1                    
CONSTANT    1.000000E-01                           #vani1                         
CONSTANT    6.000000E+01                           #hk layer 2                    
CONSTANT    1.000000E-01                           #vani2                         
CONSTANT    5.200000E+02                           #hk layer 3                    
CONSTANT    1.000000E-01                           #vani3                         
CONSTANT    5.200000E+02                           #hk layer 4                    
CONSTANT    1.000000E-01                           #vani4                         
