# Name file for MODFLOW-2005, generated by Flopy version 3.3.5.
#xll:0.0; yll:0.0; rotation:0.0; units:feet; lenuni:1; start_datetime:1-1-1970
LIST               2  p10-mf.list
DIS               11  p10-mf.dis
BAS6              13  p10-mf.bas
LPF               15  p10-mf.lpf
RCH               19  p10-mf.rch
WEL               20  p10-mf.wel
PCG               27  p10-mf.pcg
LMT6              30  p10-mf.lmt6
OC                14  p10-mf.oc
DATA(BINARY)      51  p10-mf.hds REPLACE
