# WEL package for MODFLOW-2005 generated by Flopy 3.3.5
         8         0 
         8         0 # stress period 1
         3        11        29        -19230.0
         3        19        26        -19230.0
         3        26        23        -19230.0
         3        33        20        -19230.0
         3        40        17        -19230.0
         3        48        14        -19230.0
         3        48         9        -15384.0
         3        52        17        -17307.0
