# File generated by Flopy version 3.3.5 on 03/04/2022 at 11:14:32.
BEGIN options
END options

BEGIN griddata
  iconvert
    CONSTANT  0
  ss
    CONSTANT  1.00000000E-04
  sy
    CONSTANT       0.15000000
END griddata

