# File generated by Flopy version 3.3.5 on 03/04/2022 at 11:14:32.
BEGIN options
  TIME_UNITS  days
END options

BEGIN dimensions
  NPER  1
END dimensions

BEGIN perioddata
       2.31481500  50       1.20000000
END perioddata

