# File generated by Flopy version 3.3.5 on 03/04/2022 at 11:19:03.
BEGIN options
  SAVE_SPECIFIC_DISCHARGE
END options

BEGIN griddata
  icelltype
    CONSTANT  0
  k
    CONSTANT       3.05000000
END griddata

