# File generated by Flopy version 3.3.5 on 03/04/2022 at 11:19:03.
BEGIN options
  auxiliary  CONCENTRATION
END options

BEGIN dimensions
  MAXBOUND  34
END dimensions

BEGIN period  1
  1 1 102      75.00000000  8.40000000E-05
  1 1 103      75.00000000  8.40000000E-05
  1 1 104      75.00000000  8.40000000E-05
  1 1 105      75.00000000  8.40000000E-05
  1 1 106      75.00000000  8.40000000E-05
  1 1 107      75.00000000  8.40000000E-05
  1 1 108      75.00000000  8.40000000E-05
  1 1 109      75.00000000  8.40000000E-05
  1 1 110      75.00000000  8.40000000E-05
  1 1 111      75.00000000  8.40000000E-05
  1 1 112      75.00000000  8.40000000E-05
  1 1 113      75.00000000  8.40000000E-05
  1 1 114      75.00000000  8.40000000E-05
  1 1 115      75.00000000  8.40000000E-05
  1 1 116      75.00000000  8.40000000E-05
  1 1 117      75.00000000  8.40000000E-05
  1 1 118      75.00000000  8.40000000E-05
  1 1 119      75.00000000  8.40000000E-05
  1 1 120      75.00000000  8.40000000E-05
  1 1 121      75.00000000  8.40000000E-05
  1 1 122      75.00000000  8.40000000E-05
  1 1 123      75.00000000  8.40000000E-05
  1 1 124      75.00000000  8.40000000E-05
  1 1 125      75.00000000  8.40000000E-05
  1 1 126      75.00000000  8.40000000E-05
  1 1 127      75.00000000  8.40000000E-05
  1 1 128      75.00000000  8.40000000E-05
  1 1 129      75.00000000  8.40000000E-05
  1 1 130      75.00000000  8.40000000E-05
  1 1 131      75.00000000  8.40000000E-05
  1 1 132      75.00000000  8.40000000E-05
  1 1 133      75.00000000  8.40000000E-05
  1 1 134      75.00000000  8.40000000E-05
  1 1 135      75.00000000  8.40000000E-05
END period  1

