# File generated by Flopy version 3.3.5 on 03/04/2022 at 11:19:03.
BEGIN options
  LENGTH_UNITS  mm
END options

BEGIN dimensions
  NLAY  57
  NROW  1
  NCOL  135
END dimensions

BEGIN griddata
  delr
    INTERNAL  FACTOR  1.0
         0.75000000       0.75000000       0.75000000       0.75000000       0.75000000       0.75000000       0.75000000       0.75000000       0.75000000       0.75000000       0.75000000       0.75000000       0.75000000       0.75000000       0.75000000       0.75000000       0.75000000       0.75000000       0.75000000       0.75000000       0.75000000       0.75000000       0.75000000       0.75000000       0.75000000       0.75000000       0.75000000       0.75000000       0.75000000       0.75000000       0.75000000       0.75000000       0.75000000       0.75000000       0.75000000       0.75000000       0.75000000       0.75000000       0.75000000       0.75000000       0.75000000       0.75000000       0.75000000       0.75000000       0.75000000       0.75000000       0.75000000       0.75000000       0.75000000       0.75000000       0.75000000       0.75000000       0.75000000       0.75000000       0.75000000       0.75000000       0.75000000       0.75000000       0.75000000       0.75000000       0.75000000       0.75000000       0.75000000       0.75000000       0.75000000       0.75000000       0.75000000       0.75000000       0.75000000       0.75000000       1.50000000       1.50000000       1.50000000       1.50000000       1.50000000       1.50000000       1.50000000       1.50000000       1.50000000       1.50000000       1.50000000       1.50000000       1.50000000       1.50000000       1.50000000       1.50000000       1.50000000       1.50000000       1.50000000       1.50000000       1.50000000       1.50000000       1.50000000       1.50000000       1.50000000       1.50000000       1.50000000       1.50000000       1.50000000       1.50000000       1.50000000       1.50000000       1.50000000       1.50000000       1.50000000       1.50000000       1.50000000       1.50000000       1.50000000       1.50000000       1.50000000       1.50000000       1.50000000       1.50000000       1.50000000       1.50000000       1.50000000       1.50000000       1.50000000       1.50000000       1.50000000       1.50000000       1.50000000       1.50000000       1.50000000       1.50000000       1.50000000       1.50000000       1.50000000       1.50000000       1.50000000       1.50000000       1.50000000       1.50000000       1.50000000
  delc
    CONSTANT       1.50000000
  top
    CONSTANT      75.00000000
  botm  LAYERED
    CONSTANT      74.25000000
    CONSTANT      73.50000000
    CONSTANT      72.75000000
    CONSTANT      72.00000000
    CONSTANT      71.25000000
    CONSTANT      70.50000000
    CONSTANT      69.75000000
    CONSTANT      69.00000000
    CONSTANT      68.25000000
    CONSTANT      67.50000000
    CONSTANT      66.75000000
    CONSTANT      66.00000000
    CONSTANT      65.25000000
    CONSTANT      64.50000000
    CONSTANT      63.00000000
    CONSTANT      61.50000000
    CONSTANT      60.00000000
    CONSTANT      58.50000000
    CONSTANT      57.00000000
    CONSTANT      55.50000000
    CONSTANT      54.00000000
    CONSTANT      52.50000000
    CONSTANT      51.00000000
    CONSTANT      49.50000000
    CONSTANT      48.00000000
    CONSTANT      46.50000000
    CONSTANT      45.00000000
    CONSTANT      43.50000000
    CONSTANT      42.00000000
    CONSTANT      40.50000000
    CONSTANT      39.00000000
    CONSTANT      37.50000000
    CONSTANT      36.00000000
    CONSTANT      34.50000000
    CONSTANT      33.00000000
    CONSTANT      31.50000000
    CONSTANT      30.00000000
    CONSTANT      28.50000000
    CONSTANT      27.00000000
    CONSTANT      25.50000000
    CONSTANT      24.00000000
    CONSTANT      22.50000000
    CONSTANT      21.00000000
    CONSTANT      19.50000000
    CONSTANT      18.00000000
    CONSTANT      16.50000000
    CONSTANT      15.00000000
    CONSTANT      13.50000000
    CONSTANT      12.00000000
    CONSTANT      10.50000000
    CONSTANT       9.00000000
    CONSTANT       7.50000000
    CONSTANT       6.00000000
    CONSTANT       4.50000000
    CONSTANT       3.00000000
    CONSTANT       1.50000000
    CONSTANT       0.00000000
END griddata

