# File generated by Flopy version 3.3.5 on 03/04/2022 at 11:19:03.
BEGIN options
END options

BEGIN griddata
  iconvert
    CONSTANT  0
  ss
    CONSTANT  3.80000000E-10
  sy
    CONSTANT       0.15000000
END griddata

