# File generated by Flopy version 3.3.5 on 03/04/2022 at 11:19:03.
BEGIN options
  TIME_UNITS  seconds
END options

BEGIN dimensions
  NPER  1
END dimensions

BEGIN perioddata
   24000.00000000  400       1.00000000
END perioddata

