# File generated by Flopy version 3.3.5 on 03/04/2022 at 11:19:03.
BEGIN griddata
  strt
    CONSTANT  8.40000000E-05
END griddata

