# File generated by Flopy version 3.3.5 on 03/04/2022 at 11:19:03.
BEGIN options
END options

BEGIN dimensions
  MAXBOUND  67
END dimensions

BEGIN period  1
  1 1 1  1.10065887E-04
  1 1 2  1.10000265E-04
  1 1 3  1.09958038E-04
  1 1 4  1.10098182E-04
  1 1 5  1.10032651E-04
  1 1 6  1.10110301E-04
  1 1 7  1.10081601E-04
  1 1 8  1.09997126E-04
  1 1 9  1.10016505E-04
  1 1 10  1.10004796E-04
  1 1 11  1.10106571E-04
  1 1 12  1.09974488E-04
  1 1 13  1.09875429E-04
  1 1 14  1.10060436E-04
  1 1 15  1.09984181E-04
  1 1 16  1.10019309E-04
  1 1 17  1.10030176E-04
  1 1 18  1.09942249E-04
  1 1 19  1.09894921E-04
  1 1 20  1.09940078E-04
  1 1 21  1.09905144E-04
  1 1 22  1.10077821E-04
  1 1 23  1.09986738E-04
  1 1 24  1.10022560E-04
  1 1 25  1.09971118E-04
  1 1 26  1.09883270E-04
  1 1 27  1.10011671E-04
  1 1 28  1.10046037E-04
  1 1 29  1.09925654E-04
  1 1 30  1.10115514E-04
  1 1 31  1.09922837E-04
  1 1 32  1.10111227E-04
  1 1 33  1.09873393E-04
  1 1 34  1.10111899E-04
  1 1 35  1.10120652E-04
  1 1 36  1.09995719E-04
  1 1 37  1.09889318E-04
  1 1 38  1.09943166E-04
  1 1 39  1.10093407E-04
  1 1 40  1.10117850E-04
  1 1 41  1.09922099E-04
  1 1 42  1.10084210E-04
  1 1 43  1.10100411E-04
  1 1 44  1.10022514E-04
  1 1 45  1.10039094E-04
  1 1 46  1.09933628E-04
  1 1 47  1.10121095E-04
  1 1 48  1.10041720E-04
  1 1 49  1.10049364E-04
  1 1 50  1.10050313E-04
  1 1 51  1.10037537E-04
  1 1 52  1.09885067E-04
  1 1 53  1.09999016E-04
  1 1 54  1.09893989E-04
  1 1 55  1.09872535E-04
  1 1 56  1.10057843E-04
  1 1 57  1.10128224E-04
  1 1 58  1.09926173E-04
  1 1 59  1.10071854E-04
  1 1 60  1.09983247E-04
  1 1 61  1.09900650E-04
  1 1 62  1.09884992E-04
  1 1 63  1.09874194E-04
  1 1 64  1.09960420E-04
  1 1 65  1.10089184E-04
  1 1 66  1.09906286E-04
  1 1 67  1.09916495E-04
END period  1

