# File generated by Flopy version 3.3.5 on 03/04/2022 at 11:19:03.
BEGIN options
  SCHEME  upstream
END options

