# File generated by Flopy version 3.3.5 on 03/04/2022 at 11:19:03.
BEGIN options
  XT3D_OFF
END options

BEGIN griddata
  diffc
    CONSTANT  9.00000000E-04
  alh
    CONSTANT  9.00000000E-07
  ath1
    CONSTANT  9.00000000E-07
END griddata

