# File generated by Flopy version 3.3.5 on 03/04/2022 at 11:18:48.
BEGIN options
  ZERO_ORDER_DECAY
  SORPTION  linear
END options

BEGIN griddata
  porosity
    CONSTANT       0.20000000
  decay
    CONSTANT  -5.00000000E-04
  decay_sorbed
    CONSTANT  -5.00000000E-04
  bulk_density
    CONSTANT       4.00000000
  distcoef
    CONSTANT       0.25000000
END griddata

