# File generated by Flopy version 3.3.5 on 03/04/2022 at 11:18:48.
BEGIN options
END options

BEGIN linear
  LINEAR_ACCELERATION  bicgstab
END linear

