# File generated by Flopy version 3.3.5 on 03/04/2022 at 11:18:43.
BEGIN options
  LENGTH_UNITS  feet
END options

BEGIN dimensions
  NLAY  4
  NROW  61
  NCOL  40
END dimensions

BEGIN griddata
  delr
    INTERNAL  FACTOR  1.0
      2000.00000000    1600.00000000     800.00000000     400.00000000     200.00000000     100.00000000      50.00000000      50.00000000      50.00000000      50.00000000      50.00000000      50.00000000      50.00000000      50.00000000      50.00000000      50.00000000      50.00000000      50.00000000      50.00000000      50.00000000      50.00000000      50.00000000      50.00000000      50.00000000      50.00000000      50.00000000      50.00000000      50.00000000      50.00000000      50.00000000      50.00000000      50.00000000      50.00000000      50.00000000     100.00000000     200.00000000     400.00000000     800.00000000    1600.00000000    2000.00000000
  delc
    INTERNAL  FACTOR  1.0
      2000.00000000    2000.00000000    2000.00000000    1600.00000000     800.00000000     400.00000000     200.00000000     100.00000000      50.00000000      50.00000000      50.00000000      50.00000000      50.00000000      50.00000000      50.00000000      50.00000000      50.00000000      50.00000000      50.00000000      50.00000000      50.00000000      50.00000000      50.00000000      50.00000000      50.00000000      50.00000000      50.00000000      50.00000000      50.00000000      50.00000000      50.00000000      50.00000000      50.00000000      50.00000000      50.00000000      50.00000000      50.00000000      50.00000000      50.00000000      50.00000000
        50.00000000      50.00000000      50.00000000      50.00000000      50.00000000      50.00000000      50.00000000      50.00000000      50.00000000      50.00000000      50.00000000      50.00000000      50.00000000     100.00000000     200.00000000     400.00000000     800.00000000    1600.00000000    2000.00000000    2000.00000000    2000.00000000
  top
    CONSTANT     780.00000000
  botm  LAYERED
    CONSTANT     755.00000000
    CONSTANT     730.00000000
    CONSTANT     705.00000000
    CONSTANT     680.00000000
  idomain
    CONSTANT  1
END griddata

