# File generated by Flopy version 3.3.5 on 03/04/2022 at 11:18:43.
BEGIN options
END options

BEGIN griddata
  iconvert
    CONSTANT  0
  ss
    CONSTANT       0.00000000
  sy
    CONSTANT       0.00000000
END griddata

