# File generated by Flopy version 3.3.5 on 03/04/2022 at 11:18:43.
BEGIN griddata
  strt  LAYERED
    INTERNAL  FACTOR  1.0
         787.39900000     788.21800000     788.76400000     789.03700000     789.17300000     789.24100000     789.27600000     789.29800000     789.32100000     789.34400000     789.36700000     789.38900000     789.41200000     789.43500000     789.45800000     789.48000000     789.50300000     789.52600000     789.54900000     789.57100000     789.59400000     789.61700000     789.64000000     789.66200000     789.68500000     789.70800000     789.73100000     789.75300000     789.77600000     789.79900000     789.82100000     789.84400000     789.86700000     789.89000000     789.92400000     789.99200000     790.12900000     790.40200000     790.94800000     791.76700000
         785.31900000     786.13800000     786.68400000     786.95700000     787.09300000     787.16100000     787.19500000     787.21800000     787.24100000     787.26400000     787.28600000     787.30900000     787.33200000     787.35500000     787.37800000     787.40000000     787.42300000     787.44600000     787.46900000     787.49100000     787.51400000     787.53700000     787.56000000     787.58200000     787.60500000     787.62800000     787.65100000     787.67300000     787.69600000     787.71900000     787.74200000     787.76400000     787.78700000     787.81000000     787.84400000     787.91200000     788.04900000     788.32200000     788.86800000     789.68700000
         783.23900000     784.05800000     784.60400000     784.87700000     785.01300000     785.08100000     785.11500000     785.13800000     785.16100000     785.18400000     785.20600000     785.22900000     785.25200000     785.27500000     785.29700000     785.32000000     785.34300000     785.36600000     785.38800000     785.41100000     785.43400000     785.45700000     785.47900000     785.50200000     785.52500000     785.54800000     785.57000000     785.59300000     785.61600000     785.63900000     785.66100000     785.68400000     785.70700000     785.73000000     785.76400000     785.83200000     785.96900000     786.24200000     786.78800000     787.60700000
         781.36700000     782.18600000     782.73200000     783.00500000     783.14100000     783.20900000     783.24400000     783.26600000     783.28900000     783.31200000     783.33400000     783.35700000     783.38000000     783.40300000     783.42500000     783.44800000     783.47100000     783.49400000     783.51600000     783.53900000     783.56200000     783.58500000     783.60700000     783.63000000     783.65300000     783.67600000     783.69800000     783.72100000     783.74400000     783.76700000     783.78900000     783.81200000     783.83500000     783.85800000     783.89200000     783.96000000     784.09700000     784.37000000     784.91600000     785.73500000
         780.11900000     780.93800000     781.48400000     781.75700000     781.89300000     781.96100000     781.99500000     782.01800000     782.04100000     782.06400000     782.08600000     782.10900000     782.13200000     782.15500000     782.17700000     782.20000000     782.22300000     782.24600000     782.26800000     782.29100000     782.31400000     782.33700000     782.35900000     782.38200000     782.40500000     782.42800000     782.45100000     782.47300000     782.49600000     782.51900000     782.54200000     782.56400000     782.58700000     782.61000000     782.64400000     782.71200000     782.84900000     783.12200000     783.66800000     784.48700000
         779.49500000     780.31400000     780.86000000     781.13300000     781.26900000     781.33700000     781.37200000     781.39400000     781.41700000     781.44000000     781.46300000     781.48500000     781.50800000     781.53100000     781.55400000     781.57600000     781.59900000     781.62200000     781.64400000     781.66700000     781.69000000     781.71300000     781.73500000     781.75800000     781.78100000     781.80400000     781.82600000     781.84900000     781.87200000     781.89500000     781.91700000     781.94000000     781.96300000     781.98600000     782.02000000     782.08800000     782.22500000     782.49800000     783.04400000     783.86300000
         779.18300000     780.00200000     780.54800000     780.82100000     780.95700000     781.02500000     781.06000000     781.08200000     781.10500000     781.12800000     781.15100000     781.17300000     781.19600000     781.21900000     781.24200000     781.26400000     781.28700000     781.31000000     781.33300000     781.35500000     781.37800000     781.40100000     781.42400000     781.44600000     781.46900000     781.49200000     781.51500000     781.53700000     781.56000000     781.58300000     781.60600000     781.62800000     781.65100000     781.67400000     781.70800000     781.77600000     781.91300000     782.18600000     782.73200000     783.55100000
         779.02700000     779.84600000     780.39200000     780.66500000     780.80100000     780.86900000     780.90400000     780.92600000     780.94900000     780.97200000     780.99500000     781.01700000     781.04000000     781.06300000     781.08600000     781.10800000     781.13100000     781.15400000     781.17700000     781.19900000     781.22200000     781.24500000     781.26800000     781.29000000     781.31300000     781.33600000     781.35900000     781.38100000     781.40400000     781.42700000     781.45000000     781.47200000     781.49500000     781.51800000     781.55200000     781.62000000     781.75700000     782.03000000     782.57600000     783.39500000
         778.94900000     779.76800000     780.31400000     780.58700000     780.72300000     780.79100000     780.82600000     780.84800000     780.87100000     780.89400000     780.91700000     780.93900000     780.96200000     780.98500000     781.00800000     781.03000000     781.05300000     781.07600000     781.09900000     781.12100000     781.14400000     781.16700000     781.19000000     781.21200000     781.23500000     781.25800000     781.28100000     781.30300000     781.32600000     781.34900000     781.37200000     781.39400000     781.41700000     781.44000000     781.47400000     781.54200000     781.67900000     781.95200000     782.49800000     783.31700000
         778.89700000     779.71600000     780.26200000     780.53500000     780.67100000     780.73900000     780.77300000     780.79600000     780.81900000     780.84200000     780.86500000     780.88700000     780.91000000     780.93300000     780.95600000     780.97800000     781.00100000     781.02400000     781.04700000     781.06900000     781.09200000     781.11500000     781.13800000     781.16000000     781.18300000     781.20600000     781.22900000     781.25100000     781.27400000     781.29700000     781.32000000     781.34200000     781.36500000     781.38800000     781.42200000     781.49000000     781.62700000     781.90000000     782.44600000     783.26500000
         778.84500000     779.66400000     780.21000000     780.48300000     780.61900000     780.68700000     780.72100000     780.74400000     780.76700000     780.79000000     780.81300000     780.83500000     780.85800000     780.88100000     780.90400000     780.92600000     780.94900000     780.97200000     780.99500000     781.01700000     781.04000000     781.06300000     781.08600000     781.10800000     781.13100000     781.15400000     781.17700000     781.19900000     781.22200000     781.24500000     781.26800000     781.29000000     781.31300000     781.33600000     781.37000000     781.43800000     781.57500000     781.84800000     782.39400000     783.21300000
         778.79300000     779.61200000     780.15800000     780.43100000     780.56700000     780.63500000     780.66900000     780.69200000     780.71500000     780.73800000     780.76000000     780.78300000     780.80600000     780.82900000     780.85200000     780.87400000     780.89700000     780.92000000     780.94300000     780.96500000     780.98800000     781.01100000     781.03400000     781.05600000     781.07900000     781.10200000     781.12500000     781.14700000     781.17000000     781.19300000     781.21600000     781.23800000     781.26100000     781.28400000     781.31800000     781.38600000     781.52300000     781.79600000     782.34200000     783.16100000
         778.74100000     779.56000000     780.10600000     780.37900000     780.51500000     780.58300000     780.61700000     780.64000000     780.66300000     780.68600000     780.70800000     780.73100000     780.75400000     780.77700000     780.79900000     780.82200000     780.84500000     780.86800000     780.89100000     780.91300000     780.93600000     780.95900000     780.98200000     781.00400000     781.02700000     781.05000000     781.07300000     781.09500000     781.11800000     781.14100000     781.16400000     781.18600000     781.20900000     781.23200000     781.26600000     781.33400000     781.47100000     781.74400000     782.29000000     783.10900000
         778.68900000     779.50800000     780.05400000     780.32700000     780.46300000     780.53100000     780.56500000     780.58800000     780.61100000     780.63400000     780.65600000     780.67900000     780.70200000     780.72500000     780.74700000     780.77000000     780.79300000     780.81600000     780.83900000     780.86100000     780.88400000     780.90700000     780.93000000     780.95200000     780.97500000     780.99800000     781.02100000     781.04300000     781.06600000     781.08900000     781.11200000     781.13400000     781.15700000     781.18000000     781.21400000     781.28200000     781.41900000     781.69200000     782.23800000     783.05700000
         778.63700000     779.45600000     780.00200000     780.27500000     780.41100000     780.47900000     780.51300000     780.53600000     780.55900000     780.58200000     780.60400000     780.62700000     780.65000000     780.67300000     780.69500000     780.71800000     780.74100000     780.76400000     780.78600000     780.80900000     780.83200000     780.85500000     780.87800000     780.90000000     780.92300000     780.94600000     780.96900000     780.99100000     781.01400000     781.03700000     781.06000000     781.08200000     781.10500000     781.12800000     781.16200000     781.23000000     781.36700000     781.64000000     782.18600000     783.00500000
         778.58500000     779.40400000     779.95000000     780.22300000     780.35900000     780.42700000     780.46100000     780.48400000     780.50700000     780.53000000     780.55200000     780.57500000     780.59800000     780.62100000     780.64300000     780.66600000     780.68900000     780.71200000     780.73400000     780.75700000     780.78000000     780.80300000     780.82600000     780.84800000     780.87100000     780.89400000     780.91700000     780.93900000     780.96200000     780.98500000     781.00800000     781.03000000     781.05300000     781.07600000     781.11000000     781.17800000     781.31500000     781.58800000     782.13400000     782.95300000
         778.53300000     779.35200000     779.89800000     780.17100000     780.30700000     780.37500000     780.40900000     780.43200000     780.45500000     780.47800000     780.50000000     780.52300000     780.54600000     780.56900000     780.59100000     780.61400000     780.63700000     780.66000000     780.68200000     780.70500000     780.72800000     780.75100000     780.77300000     780.79600000     780.81900000     780.84200000     780.86500000     780.88700000     780.91000000     780.93300000     780.95600000     780.97800000     781.00100000     781.02400000     781.05800000     781.12600000     781.26300000     781.53600000     782.08200000     782.90100000
         778.48100000     779.30000000     779.84600000     780.11900000     780.25500000     780.32300000     780.35700000     780.38000000     780.40300000     780.42600000     780.44800000     780.47100000     780.49400000     780.51700000     780.53900000     780.56200000     780.58500000     780.60800000     780.63000000     780.65300000     780.67600000     780.69900000     780.72100000     780.74400000     780.76700000     780.79000000     780.81300000     780.83500000     780.85800000     780.88100000     780.90400000     780.92600000     780.94900000     780.97200000     781.00600000     781.07400000     781.21100000     781.48400000     782.03000000     782.84900000
         778.42900000     779.24800000     779.79400000     780.06700000     780.20300000     780.27100000     780.30500000     780.32800000     780.35100000     780.37400000     780.39600000     780.41900000     780.44200000     780.46500000     780.48700000     780.51000000     780.53300000     780.55600000     780.57800000     780.60100000     780.62400000     780.64700000     780.66900000     780.69200000     780.71500000     780.73800000     780.76000000     780.78300000     780.80600000     780.82900000     780.85200000     780.87400000     780.89700000     780.92000000     780.95400000     781.02200000     781.15900000     781.43200000     781.97800000     782.79700000
         778.37700000     779.19600000     779.74200000     780.01500000     780.15100000     780.21900000     780.25300000     780.27600000     780.29900000     780.32200000     780.34400000     780.36700000     780.39000000     780.41300000     780.43500000     780.45800000     780.48100000     780.50400000     780.52600000     780.54900000     780.57200000     780.59500000     780.61700000     780.64000000     780.66300000     780.68600000     780.70800000     780.73100000     780.75400000     780.77700000     780.79900000     780.82200000     780.84500000     780.86800000     780.90200000     780.97000000     781.10700000     781.38000000     781.92600000     782.74500000
         778.32500000     779.14400000     779.69000000     779.96300000     780.09900000     780.16700000     780.20100000     780.22400000     780.24700000     780.27000000     780.29200000     780.31500000     780.33800000     780.36100000     780.38300000     780.40600000     780.42900000     780.45200000     780.47400000     780.49700000     780.52000000     780.54300000     780.56500000     780.58800000     780.61100000     780.63400000     780.65600000     780.67900000     780.70200000     780.72500000     780.74700000     780.77000000     780.79300000     780.81600000     780.85000000     780.91800000     781.05500000     781.32800000     781.87400000     782.69300000
         778.27300000     779.09200000     779.63800000     779.91100000     780.04700000     780.11500000     780.14900000     780.17200000     780.19500000     780.21800000     780.24000000     780.26300000     780.28600000     780.30900000     780.33100000     780.35400000     780.37700000     780.40000000     780.42200000     780.44500000     780.46800000     780.49100000     780.51300000     780.53600000     780.55900000     780.58200000     780.60400000     780.62700000     780.65000000     780.67300000     780.69500000     780.71800000     780.74100000     780.76400000     780.79800000     780.86600000     781.00300000     781.27600000     781.82200000     782.64100000
         778.22100000     779.04000000     779.58600000     779.85900000     779.99500000     780.06300000     780.09700000     780.12000000     780.14300000     780.16600000     780.18800000     780.21100000     780.23400000     780.25700000     780.27900000     780.30200000     780.32500000     780.34800000     780.37000000     780.39300000     780.41600000     780.43900000     780.46100000     780.48400000     780.50700000     780.53000000     780.55200000     780.57500000     780.59800000     780.62100000     780.64300000     780.66600000     780.68900000     780.71200000     780.74600000     780.81400000     780.95100000     781.22400000     781.77000000     782.58900000
         778.16900000     778.98800000     779.53400000     779.80700000     779.94300000     780.01100000     780.04500000     780.06800000     780.09100000     780.11400000     780.13600000     780.15900000     780.18200000     780.20500000     780.22700000     780.25000000     780.27300000     780.29600000     780.31800000     780.34100000     780.36400000     780.38700000     780.40900000     780.43200000     780.45500000     780.47800000     780.50000000     780.52300000     780.54600000     780.56900000     780.59100000     780.61400000     780.63700000     780.66000000     780.69400000     780.76200000     780.89900000     781.17200000     781.71800000     782.53700000
         778.11700000     778.93600000     779.48200000     779.75500000     779.89100000     779.95900000     779.99400000     780.01600000     780.03900000     780.06200000     780.08400000     780.10700000     780.13000000     780.15300000     780.17500000     780.19800000     780.22100000     780.24400000     780.26600000     780.28900000     780.31200000     780.33500000     780.35700000     780.38000000     780.40300000     780.42600000     780.44800000     780.47100000     780.49400000     780.51700000     780.53900000     780.56200000     780.58500000     780.60800000     780.64200000     780.71000000     780.84700000     781.12000000     781.66600000     782.48500000
         778.06500000     778.88400000     779.43000000     779.70300000     779.83900000     779.90700000     779.94200000     779.96400000     779.98700000     780.01000000     780.03200000     780.05500000     780.07800000     780.10100000     780.12300000     780.14600000     780.16900000     780.19200000     780.21400000     780.23700000     780.26000000     780.28300000     780.30500000     780.32800000     780.35100000     780.37400000     780.39600000     780.41900000     780.44200000     780.46500000     780.48700000     780.51000000     780.53300000     780.55600000     780.59000000     780.65800000     780.79500000     781.06800000     781.61400000     782.43300000
         778.01300000     778.83200000     779.37800000     779.65100000     779.78700000     779.85500000     779.89000000     779.91200000     779.93500000     779.95800000     779.98100000     780.00300000     780.02600000     780.04900000     780.07100000     780.09400000     780.11700000     780.14000000     780.16200000     780.18500000     780.20800000     780.23100000     780.25300000     780.27600000     780.29900000     780.32200000     780.34400000     780.36700000     780.39000000     780.41300000     780.43500000     780.45800000     780.48100000     780.50400000     780.53800000     780.60600000     780.74300000     781.01600000     781.56200000     782.38100000
         777.96100000     778.78000000     779.32600000     779.59900000     779.73500000     779.80300000     779.83800000     779.86000000     779.88300000     779.90600000     779.92900000     779.95100000     779.97400000     779.99700000     780.01900000     780.04200000     780.06500000     780.08800000     780.11000000     780.13300000     780.15600000     780.17900000     780.20100000     780.22400000     780.24700000     780.27000000     780.29200000     780.31500000     780.33800000     780.36100000     780.38300000     780.40600000     780.42900000     780.45200000     780.48600000     780.55400000     780.69100000     780.96400000     781.51000000     782.32900000
         777.90900000     778.72800000     779.27400000     779.54700000     779.68300000     779.75100000     779.78600000     779.80800000     779.83100000     779.85400000     779.87700000     779.89900000     779.92200000     779.94500000     779.96800000     779.99000000     780.01300000     780.03600000     780.05800000     780.08100000     780.10400000     780.12700000     780.14900000     780.17200000     780.19500000     780.21800000     780.24000000     780.26300000     780.28600000     780.30900000     780.33100000     780.35400000     780.37700000     780.40000000     780.43400000     780.50200000     780.63900000     780.91200000     781.45800000     782.27700000
         777.85700000     778.67600000     779.22200000     779.49500000     779.63100000     779.69900000     779.73400000     779.75600000     779.77900000     779.80200000     779.82500000     779.84700000     779.87000000     779.89300000     779.91600000     779.93800000     779.96100000     779.98400000     780.00600000     780.02900000     780.05200000     780.07500000     780.09700000     780.12000000     780.14300000     780.16600000     780.18800000     780.21100000     780.23400000     780.25700000     780.27900000     780.30200000     780.32500000     780.34800000     780.38200000     780.45000000     780.58700000     780.86000000     781.40600000     782.22500000
         777.80500000     778.62400000     779.17000000     779.44300000     779.57900000     779.64700000     779.68200000     779.70400000     779.72700000     779.75000000     779.77300000     779.79500000     779.81800000     779.84100000     779.86400000     779.88600000     779.90900000     779.93200000     779.95500000     779.97700000     780.00000000     780.02300000     780.04500000     780.06800000     780.09100000     780.11400000     780.13600000     780.15900000     780.18200000     780.20500000     780.22700000     780.25000000     780.27300000     780.29600000     780.33000000     780.39800000     780.53500000     780.80800000     781.35400000     782.17300000
         777.75300000     778.57200000     779.11800000     779.39100000     779.52700000     779.59500000     779.63000000     779.65200000     779.67500000     779.69800000     779.72100000     779.74300000     779.76600000     779.78900000     779.81200000     779.83400000     779.85700000     779.88000000     779.90300000     779.92500000     779.94800000     779.97100000     779.99400000     780.01600000     780.03900000     780.06200000     780.08400000     780.10700000     780.13000000     780.15300000     780.17500000     780.19800000     780.22100000     780.24400000     780.27800000     780.34600000     780.48300000     780.75600000     781.30200000     782.12100000
         777.70100000     778.52000000     779.06600000     779.33900000     779.47500000     779.54300000     779.57800000     779.60000000     779.62300000     779.64600000     779.66900000     779.69100000     779.71400000     779.73700000     779.76000000     779.78200000     779.80500000     779.82800000     779.85100000     779.87300000     779.89600000     779.91900000     779.94200000     779.96400000     779.98700000     780.01000000     780.03200000     780.05500000     780.07800000     780.10100000     780.12300000     780.14600000     780.16900000     780.19200000     780.22600000     780.29400000     780.43100000     780.70400000     781.25000000     782.06900000
         777.64900000     778.46800000     779.01400000     779.28700000     779.42300000     779.49100000     779.52600000     779.54800000     779.57100000     779.59400000     779.61700000     779.63900000     779.66200000     779.68500000     779.70800000     779.73000000     779.75300000     779.77600000     779.79900000     779.82100000     779.84400000     779.86700000     779.89000000     779.91200000     779.93500000     779.95800000     779.98100000     780.00300000     780.02600000     780.04900000     780.07100000     780.09400000     780.11700000     780.14000000     780.17400000     780.24200000     780.37900000     780.65200000     781.19800000     782.01700000
         777.59700000     778.41600000     778.96200000     779.23500000     779.37100000     779.43900000     779.47400000     779.49600000     779.51900000     779.54200000     779.56500000     779.58700000     779.61000000     779.63300000     779.65600000     779.67800000     779.70100000     779.72400000     779.74700000     779.76900000     779.79200000     779.81500000     779.83800000     779.86000000     779.88300000     779.90600000     779.92900000     779.95100000     779.97400000     779.99700000     780.01900000     780.04200000     780.06500000     780.08800000     780.12200000     780.19000000     780.32700000     780.60000000     781.14600000     781.96500000
         777.54500000     778.36400000     778.91000000     779.18300000     779.31900000     779.38700000     779.42200000     779.44400000     779.46700000     779.49000000     779.51300000     779.53500000     779.55800000     779.58100000     779.60400000     779.62600000     779.64900000     779.67200000     779.69500000     779.71700000     779.74000000     779.76300000     779.78600000     779.80800000     779.83100000     779.85400000     779.87700000     779.89900000     779.92200000     779.94500000     779.96800000     779.99000000     780.01300000     780.03600000     780.07000000     780.13800000     780.27500000     780.54800000     781.09400000     781.91300000
         777.49300000     778.31200000     778.85800000     779.13100000     779.26700000     779.33500000     779.37000000     779.39200000     779.41500000     779.43800000     779.46100000     779.48300000     779.50600000     779.52900000     779.55200000     779.57400000     779.59700000     779.62000000     779.64300000     779.66500000     779.68800000     779.71100000     779.73400000     779.75600000     779.77900000     779.80200000     779.82500000     779.84700000     779.87000000     779.89300000     779.91600000     779.93800000     779.96100000     779.98400000     780.01800000     780.08600000     780.22300000     780.49600000     781.04200000     781.86100000
         777.44100000     778.26000000     778.80600000     779.07900000     779.21500000     779.28300000     779.31800000     779.34000000     779.36300000     779.38600000     779.40900000     779.43100000     779.45400000     779.47700000     779.50000000     779.52200000     779.54500000     779.56800000     779.59100000     779.61300000     779.63600000     779.65900000     779.68200000     779.70400000     779.72700000     779.75000000     779.77300000     779.79500000     779.81800000     779.84100000     779.86400000     779.88600000     779.90900000     779.93200000     779.96600000     780.03400000     780.17100000     780.44400000     780.99000000     781.80900000
         777.38900000     778.20800000     778.75400000     779.02700000     779.16300000     779.23100000     779.26600000     779.28800000     779.31100000     779.33400000     779.35700000     779.37900000     779.40200000     779.42500000     779.44800000     779.47000000     779.49300000     779.51600000     779.53900000     779.56100000     779.58400000     779.60700000     779.63000000     779.65200000     779.67500000     779.69800000     779.72100000     779.74300000     779.76600000     779.78900000     779.81200000     779.83400000     779.85700000     779.88000000     779.91400000     779.98200000     780.11900000     780.39200000     780.93800000     781.75700000
         777.33700000     778.15600000     778.70200000     778.97500000     779.11100000     779.17900000     779.21400000     779.23600000     779.25900000     779.28200000     779.30500000     779.32700000     779.35000000     779.37300000     779.39600000     779.41800000     779.44100000     779.46400000     779.48700000     779.50900000     779.53200000     779.55500000     779.57800000     779.60000000     779.62300000     779.64600000     779.66900000     779.69100000     779.71400000     779.73700000     779.76000000     779.78200000     779.80500000     779.82800000     779.86200000     779.93000000     780.06700000     780.34000000     780.88600000     781.70500000
         777.28500000     778.10400000     778.65000000     778.92300000     779.05900000     779.12700000     779.16100000     779.18400000     779.20700000     779.23000000     779.25300000     779.27500000     779.29800000     779.32100000     779.34400000     779.36600000     779.38900000     779.41200000     779.43500000     779.45700000     779.48000000     779.50300000     779.52600000     779.54800000     779.57100000     779.59400000     779.61700000     779.63900000     779.66200000     779.68500000     779.70800000     779.73000000     779.75300000     779.77600000     779.81000000     779.87800000     780.01500000     780.28800000     780.83400000     781.65300000
         777.23300000     778.05200000     778.59800000     778.87100000     779.00700000     779.07500000     779.10900000     779.13200000     779.15500000     779.17800000     779.20100000     779.22300000     779.24600000     779.26900000     779.29200000     779.31400000     779.33700000     779.36000000     779.38300000     779.40500000     779.42800000     779.45100000     779.47400000     779.49600000     779.51900000     779.54200000     779.56500000     779.58700000     779.61000000     779.63300000     779.65600000     779.67800000     779.70100000     779.72400000     779.75800000     779.82600000     779.96300000     780.23600000     780.78200000     781.60100000
         777.18100000     778.00000000     778.54600000     778.81900000     778.95500000     779.02300000     779.05700000     779.08000000     779.10300000     779.12600000     779.14800000     779.17100000     779.19400000     779.21700000     779.24000000     779.26200000     779.28500000     779.30800000     779.33100000     779.35300000     779.37600000     779.39900000     779.42200000     779.44400000     779.46700000     779.49000000     779.51300000     779.53500000     779.55800000     779.58100000     779.60400000     779.62600000     779.64900000     779.67200000     779.70600000     779.77400000     779.91100000     780.18400000     780.73000000     781.54900000