# File generated by Flopy version 3.3.5 on 03/04/2022 at 11:18:43.
BEGIN options
  SAVE_FLOWS
END options

BEGIN packages
  DIS6  .\gwf-p10-mf6.dis  dis
  IC6  .\gwf-p10-mf6.ic  ic
  NPF6  .\gwf-p10-mf6.npf  npf
  STO6  .\gwf-p10-mf6.sto  sto
  CHD6  .\gwf-p10-mf6.chd  chd-1
  RCH6  .\gwf-p10-mf6.rch  rch-1
  WEL6  .\gwf-p10-mf6.wel  wel-1
  OC6  .\gwf-p10-mf6.oc  oc
END packages

