# File generated by Flopy version 3.3.5 on 03/04/2022 at 11:18:43.
BEGIN options
  PRINT_FLOWS
END options

BEGIN sources
  CHD-1  AUX  CONCENTRATION
END sources

