# File generated by Flopy version 3.3.5 on 03/04/2022 at 11:18:43.
BEGIN options
  BUDGET  FILEOUT  gwt-p10-mf6.cbc
  CONCENTRATION  FILEOUT  gwt-p10-mf6.ucn
  CONCENTRATION  PRINT_FORMAT  COLUMNS  10  WIDTH  15  DIGITS  6  GENERAL
END options

BEGIN period  1
  SAVE  CONCENTRATION  LAST
  SAVE  CONCENTRATION  STEPS  1  250  375  500
  SAVE  BUDGET  LAST
  PRINT  CONCENTRATION  LAST
  PRINT  BUDGET  LAST
END period  1

