# File generated by Flopy version 3.3.5 on 03/04/2022 at 11:18:30.
BEGIN options
END options

BEGIN sources
  WEL-1  AUX  CONCENTRATION
END sources

