# File generated by Flopy version 3.3.5 on 03/04/2022 at 11:14:13.
BEGIN options
END options

BEGIN dimensions
  NLAY  3
  NROW  15
  NCOL  15
END dimensions

BEGIN griddata
  delr
    CONSTANT     102.94000000
  delc
    CONSTANT      68.62666667
  top
    INTERNAL  FACTOR  1.0
        50.00000000      49.64300000      49.28600000      48.92900000      48.57100000      48.21400000      47.85700000      47.50000000      47.14300000      46.78600000      46.42900000      46.07100000      45.71400000      45.35700000      45.00000000
        50.00000000      49.64300000      49.28600000      48.92900000      48.57100000      48.21400000      47.85700000      47.50000000      47.14300000      46.78600000      46.42900000      46.07100000      45.71400000      45.35700000      45.00000000
        50.00000000      49.64300000      49.28600000      48.92900000      48.57100000      48.21400000      47.85700000      47.50000000      47.14300000      46.78600000      46.42900000      46.07100000      45.71400000      45.35700000      45.00000000
        50.00000000      49.64300000      49.28600000      48.92900000      48.57100000      48.21400000      47.85700000      47.50000000      47.14300000      46.78600000      46.42900000      46.07100000      45.71400000      45.35700000      45.00000000
        50.00000000      49.64300000      49.28600000      48.92900000      48.57100000      48.21400000      47.85700000      47.50000000      47.14300000      46.78600000      46.42900000      46.07100000      45.71400000      45.35700000      45.00000000
        50.00000000      49.64300000      49.28600000      48.92900000      48.57100000      48.21400000      47.85700000      47.50000000      47.14300000      46.78600000      46.42900000      46.07100000      45.71400000      45.35700000      45.00000000
        50.00000000      49.64300000      49.28600000      48.92900000      48.57100000      48.21400000      47.85700000      47.50000000      47.14300000      46.78600000      46.42900000      46.07100000      45.71400000      45.35700000      45.00000000
        50.00000000      49.64300000      49.28600000      48.92900000      48.57100000      48.21400000      47.85700000      47.50000000      47.14300000      46.78600000      46.42900000      46.07100000      45.71400000      45.35700000      45.00000000
        50.00000000      49.64300000      49.28600000      48.92900000      48.57100000      48.21400000      47.85700000      47.50000000      47.14300000      46.78600000      46.42900000      46.07100000      45.71400000      45.35700000      45.00000000
        50.00000000      49.64300000      49.28600000      48.92900000      48.57100000      48.21400000      47.85700000      47.50000000      47.14300000      46.78600000      46.42900000      46.07100000      45.71400000      45.35700000      45.00000000
        50.00000000      49.64300000      49.28600000      48.92900000      48.57100000      48.21400000      47.85700000      47.50000000      47.14300000      46.78600000      46.42900000      46.07100000      45.71400000      45.35700000      45.00000000
        50.00000000      49.64300000      49.28600000      48.92900000      48.57100000      48.21400000      47.85700000      47.50000000      47.14300000      46.78600000      46.42900000      46.07100000      45.71400000      45.35700000      45.00000000
        50.00000000      49.64300000      49.28600000      48.92900000      48.57100000      48.21400000      47.85700000      47.50000000      47.14300000      46.78600000      46.42900000      46.07100000      45.71400000      45.35700000      45.00000000
        50.00000000      49.64300000      49.28600000      48.92900000      48.57100000      48.21400000      47.85700000      47.50000000      47.14300000      46.78600000      46.42900000      46.07100000      45.71400000      45.35700000      45.00000000
        50.00000000      49.64300000      49.28600000      48.92900000      48.57100000      48.21400000      47.85700000      47.50000000      47.14300000      46.78600000      46.42900000      46.07100000      45.71400000      45.35700000      45.00000000
  botm  LAYERED
    INTERNAL  FACTOR  1.0
          33.33300000      32.97600000      32.61900000      32.26200000      31.90400000      31.54700000      31.19000000      30.83300000      30.47600000      30.11900000      29.76200000      29.40400000      29.04700000      28.69000000      28.33300000
          33.33300000      32.97600000      32.61900000      32.26200000      31.90400000      31.54700000      31.19000000      30.83300000      30.47600000      30.11900000      29.76200000      29.40400000      29.04700000      28.69000000      28.33300000
          33.33300000      32.97600000      32.61900000      32.26200000      31.90400000      31.54700000      31.19000000      30.83300000      30.47600000      30.11900000      29.76200000      29.40400000      29.04700000      28.69000000      28.33300000
          33.33300000      32.97600000      32.61900000      32.26200000      31.90400000      31.54700000      31.19000000      30.83300000      30.47600000      30.11900000      29.76200000      29.40400000      29.04700000      28.69000000      28.33300000
          33.33300000      32.97600000      32.61900000      32.26200000      31.90400000      31.54700000      31.19000000      30.83300000      30.47600000      30.11900000      29.76200000      29.40400000      29.04700000      28.69000000      28.33300000
          33.33300000      32.97600000      32.61900000      32.26200000      31.90400000      31.54700000      31.19000000      30.83300000      30.47600000      30.11900000      29.76200000      29.40400000      29.04700000      28.69000000      28.33300000
          33.33300000      32.97600000      32.61900000      32.26200000      31.90400000      31.54700000      31.19000000      30.83300000      30.47600000      30.11900000      29.76200000      29.40400000      29.04700000      28.69000000      28.33300000
          33.33300000      32.97600000      32.61900000      32.26200000      31.90400000      31.54700000      31.19000000      30.83300000      30.47600000      30.11900000      29.76200000      29.40400000      29.04700000      28.69000000      28.33300000
          33.33300000      32.97600000      32.61900000      32.26200000      31.90400000      31.54700000      31.19000000      30.83300000      30.47600000      30.11900000      29.76200000      29.40400000      29.04700000      28.69000000      28.33300000
          33.33300000      32.97600000      32.61900000      32.26200000      31.90400000      31.54700000      31.19000000      30.83300000      30.47600000      30.11900000      29.76200000      29.40400000      29.04700000      28.69000000      28.33300000
          33.33300000      32.97600000      32.61900000      32.26200000      31.90400000      31.54700000      31.19000000      30.83300000      30.47600000      30.11900000      29.76200000      29.40400000      29.04700000      28.69000000      28.33300000
          33.33300000      32.97600000      32.61900000      32.26200000      31.90400000      31.54700000      31.19000000      30.83300000      30.47600000      30.11900000      29.76200000      29.40400000      29.04700000      28.69000000      28.33300000
          33.33300000      32.97600000      32.61900000      32.26200000      31.90400000      31.54700000      31.19000000      30.83300000      30.47600000      30.11900000      29.76200000      29.40400000      29.04700000      28.69000000      28.33300000
          33.33300000      32.97600000      32.61900000      32.26200000      31.90400000      31.54700000      31.19000000      30.83300000      30.47600000      30.11900000      29.76200000      29.40400000      29.04700000      28.69000000      28.33300000
          33.33300000      32.97600000      32.61900000      32.26200000      31.90400000      31.54700000      31.19000000      30.83300000      30.47600000      30.11900000      29.76200000      29.40400000      29.04700000      28.69000000      28.33300000
    INTERNAL  FACTOR  1.0
          16.66700000      16.31000000      15.95300000      15.59600000      15.23800000      14.88100000      14.52400000      14.16700000      13.81000000      13.45300000      13.09600000      12.73800000      12.38100000      12.02400000      11.66700000
          16.66700000      16.31000000      15.95300000      15.59600000      15.23800000      14.88100000      14.52400000      14.16700000      13.81000000      13.45300000      13.09600000      12.73800000      12.38100000      12.02400000      11.66700000
          16.66700000      16.31000000      15.95300000      15.59600000      15.23800000      14.88100000      14.52400000      14.16700000      13.81000000      13.45300000      13.09600000      12.73800000      12.38100000      12.02400000      11.66700000
          16.66700000      16.31000000      15.95300000      15.59600000      15.23800000      14.88100000      14.52400000      14.16700000      13.81000000      13.45300000      13.09600000      12.73800000      12.38100000      12.02400000      11.66700000
          16.66700000      16.31000000      15.95300000      15.59600000      15.23800000      14.88100000      14.52400000      14.16700000      13.81000000      13.45300000      13.09600000      12.73800000      12.38100000      12.02400000      11.66700000
          16.66700000      16.31000000      15.95300000      15.59600000      15.23800000      14.88100000      14.52400000      14.16700000      13.81000000      13.45300000      13.09600000      12.73800000      12.38100000      12.02400000      11.66700000
          16.66700000      16.31000000      15.95300000      15.59600000      15.23800000      14.88100000      14.52400000      14.16700000      13.81000000      13.45300000      13.09600000      12.73800000      12.38100000      12.02400000      11.66700000
          16.66700000      16.31000000      15.95300000      15.59600000      15.23800000      14.88100000      14.52400000      14.16700000      13.81000000      13.45300000      13.09600000      12.73800000      12.38100000      12.02400000      11.66700000
          16.66700000      16.31000000      15.95300000      15.59600000      15.23800000      14.88100000      14.52400000      14.16700000      13.81000000      13.45300000      13.09600000      12.73800000      12.38100000      12.02400000      11.66700000
          16.66700000      16.31000000      15.95300000      15.59600000      15.23800000      14.88100000      14.52400000      14.16700000      13.81000000      13.45300000      13.09600000      12.73800000      12.38100000      12.02400000      11.66700000
          16.66700000      16.31000000      15.95300000      15.59600000      15.23800000      14.88100000      14.52400000      14.16700000      13.81000000      13.45300000      13.09600000      12.73800000      12.38100000      12.02400000      11.66700000
          16.66700000      16.31000000      15.95300000      15.59600000      15.23800000      14.88100000      14.52400000      14.16700000      13.81000000      13.45300000      13.09600000      12.73800000      12.38100000      12.02400000      11.66700000
          16.66700000      16.31000000      15.95300000      15.59600000      15.23800000      14.88100000      14.52400000      14.16700000      13.81000000      13.45300000      13.09600000      12.73800000      12.38100000      12.02400000      11.66700000
          16.66700000      16.31000000      15.95300000      15.59600000      15.23800000      14.88100000      14.52400000      14.16700000      13.81000000      13.45300000      13.09600000      12.73800000      12.38100000      12.02400000      11.66700000
          16.66700000      16.31000000      15.95300000      15.59600000      15.23800000      14.88100000      14.52400000      14.16700000      13.81000000      13.45300000      13.09600000      12.73800000      12.38100000      12.02400000      11.66700000
    INTERNAL  FACTOR  1.0
           0.00000000      -0.35700000      -0.71400000      -1.07100000      -1.42900000      -1.78600000      -2.14300000      -2.50000000      -2.85700000      -3.21400000      -3.57100000      -3.92900000      -4.28600000      -4.64300000      -5.00000000
           0.00000000      -0.35700000      -0.71400000      -1.07100000      -1.42900000      -1.78600000      -2.14300000      -2.50000000      -2.85700000      -3.21400000      -3.57100000      -3.92900000      -4.28600000      -4.64300000      -5.00000000
           0.00000000      -0.35700000      -0.71400000      -1.07100000      -1.42900000      -1.78600000      -2.14300000      -2.50000000      -2.85700000      -3.21400000      -3.57100000      -3.92900000      -4.28600000      -4.64300000      -5.00000000
           0.00000000      -0.35700000      -0.71400000      -1.07100000      -1.42900000      -1.78600000      -2.14300000      -2.50000000      -2.85700000      -3.21400000      -3.57100000      -3.92900000      -4.28600000      -4.64300000      -5.00000000
           0.00000000      -0.35700000      -0.71400000      -1.07100000      -1.42900000      -1.78600000      -2.14300000      -2.50000000      -2.85700000      -3.21400000      -3.57100000      -3.92900000      -4.28600000      -4.64300000      -5.00000000
           0.00000000      -0.35700000      -0.71400000      -1.07100000      -1.42900000      -1.78600000      -2.14300000      -2.50000000      -2.85700000      -3.21400000      -3.57100000      -3.92900000      -4.28600000      -4.64300000      -5.00000000
           0.00000000      -0.35700000      -0.71400000      -1.07100000      -1.42900000      -1.78600000      -2.14300000      -2.50000000      -2.85700000      -3.21400000      -3.57100000      -3.92900000      -4.28600000      -4.64300000      -5.00000000
           0.00000000      -0.35700000      -0.71400000      -1.07100000      -1.42900000      -1.78600000      -2.14300000      -2.50000000      -2.85700000      -3.21400000      -3.57100000      -3.92900000      -4.28600000      -4.64300000      -5.00000000
           0.00000000      -0.35700000      -0.71400000      -1.07100000      -1.42900000      -1.78600000      -2.14300000      -2.50000000      -2.85700000      -3.21400000      -3.57100000      -3.92900000      -4.28600000      -4.64300000      -5.00000000
           0.00000000      -0.35700000      -0.71400000      -1.07100000      -1.42900000      -1.78600000      -2.14300000      -2.50000000      -2.85700000      -3.21400000      -3.57100000      -3.92900000      -4.28600000      -4.64300000      -5.00000000
           0.00000000      -0.35700000      -0.71400000      -1.07100000      -1.42900000      -1.78600000      -2.14300000      -2.50000000      -2.85700000      -3.21400000      -3.57100000      -3.92900000      -4.28600000      -4.64300000      -5.00000000
           0.00000000      -0.35700000      -0.71400000      -1.07100000      -1.42900000      -1.78600000      -2.14300000      -2.50000000      -2.85700000      -3.21400000      -3.57100000      -3.92900000      -4.28600000      -4.64300000      -5.00000000
           0.00000000      -0.35700000      -0.71400000      -1.07100000      -1.42900000      -1.78600000      -2.14300000      -2.50000000      -2.85700000      -3.21400000      -3.57100000      -3.92900000      -4.28600000      -4.64300000      -5.00000000
           0.00000000      -0.35700000      -0.71400000      -1.07100000      -1.42900000      -1.78600000      -2.14300000      -2.50000000      -2.85700000      -3.21400000      -3.57100000      -3.92900000      -4.28600000      -4.64300000      -5.00000000
           0.00000000      -0.35700000      -0.71400000      -1.07100000      -1.42900000      -1.78600000      -2.14300000      -2.50000000      -2.85700000      -3.21400000      -3.57100000      -3.92900000      -4.28600000      -4.64300000      -5.00000000
  idomain  LAYERED
    INTERNAL  FACTOR  1
      1  1  1  1  1  1  1  1  1  1  1  1  1  1  1
      1  1  1  1  1  1  1  1  1  1  1  1  1  1  1
      1  1  1  1  1  1  1  1  1  1  1  1  1  1  1
      1  1  1  1  1  1  1  1  1  1  1  1  1  1  1
      1  1  1  1  1  1  1  1  1  1  1  1  1  1  1
      1  1  1  1  1  1  1  1  1  1  1  1  1  1  1
      1  1  0  0  0  0  0  0  1  1  1  1  1  1  1
      1  1  0  0  0  0  0  0  1  1  1  1  1  1  1
      1  1  0  0  0  0  0  0  1  1  1  1  1  1  1
      1  1  0  0  0  0  0  0  1  1  1  1  1  1  1
      1  1  0  0  0  0  0  0  1  1  1  1  1  1  1
      1  1  1  1  1  1  1  1  1  1  1  1  1  1  1
      1  1  1  1  1  1  1  1  1  1  1  1  1  1  1
      1  1  1  1  1  1  1  1  1  1  1  1  1  1  1
      1  1  1  1  1  1  1  1  1  1  1  1  1  1  1
    INTERNAL  FACTOR  1
      1  1  1  1  1  1  1  1  1  1  1  1  1  1  1
      1  1  1  1  1  1  1  1  1  1  1  1  1  1  1
      1  1  1  1  1  1  1  1  1  1  1  1  1  1  1
      1  1  1  1  1  1  1  1  1  1  1  1  1  1  1
      1  1  1  1  1  1  1  1  1  1  1  1  1  1  1
      1  1  1  1  1  1  1  1  1  1  1  1  1  1  1
      1  1  0  0  0  0  0  0  1  1  1  1  1  1  1
      1  1  0  0  0  0  0  0  1  1  1  1  1  1  1
      1  1  0  0  0  0  0  0  1  1  1  1  1  1  1
      1  1  0  0  0  0  0  0  1  1  1  1  1  1  1
      1  1  0  0  0  0  0  0  1  1  1  1  1  1  1
      1  1  1  1  1  1  1  1  1  1  1  1  1  1  1
      1  1  1  1  1  1  1  1  1  1  1  1  1  1  1
      1  1  1  1  1  1  1  1  1  1  1  1  1  1  1
      1  1  1  1  1  1  1  1  1  1  1  1  1  1  1
    INTERNAL  FACTOR  1
      1  1  1  1  1  1  1  1  1  1  1  1  1  1  1
      1  1  1  1  1  1  1  1  1  1  1  1  1  1  1
      1  1  1  1  1  1  1  1  1  1  1  1  1  1  1
      1  1  1  1  1  1  1  1  1  1  1  1  1  1  1
      1  1  1  1  1  1  1  1  1  1  1  1  1  1  1
      1  1  1  1  1  1  1  1  1  1  1  1  1  1  1
      1  1  1  1  1  1  1  1  1  1  1  1  1  1  1
      1  1  1  1  1  1  1  1  1  1  1  1  1  1  1
      1  1  1  1  1  1  1  1  1  1  1  1  1  1  1
      1  1  1  1  1  1  1  1  1  1  1  1  1  1  1
      1  1  1  1  1  1  1  1  1  1  1  1  1  1  1
      1  1  1  1  1  1  1  1  1  1  1  1  1  1  1
      1  1  1  1  1  1  1  1  1  1  1  1  1  1  1
      1  1  1  1  1  1  1  1  1  1  1  1  1  1  1
      1  1  1  1  1  1  1  1  1  1  1  1  1  1  1
END griddata

