# File generated by Flopy version 3.3.5 on 03/04/2022 at 11:14:13.
BEGIN options
  SAVE_FLOWS
  BUDGET  FILEOUT  gwf-lgr-parent.sfr.bud
  MOVER
  UNIT_CONVERSION   86400.00000000
END options

BEGIN dimensions
  NREACHES  18
END dimensions

BEGIN packagedata
  1  1 1 2      65.61302900       5.00000000       0.00128690      49.40967600       1.50000000       0.10000000  0.04  1       1.00000000  0
  2  1 2 2      72.48860900       5.00000000       0.00128690      49.32081200       1.50000000       0.10000000  0.04  2       1.00000000  0
  3  1 3 2      81.42478900       5.00000000       0.00128690      49.22177500       1.50000000       0.10000000  0.04  2       1.00000000  0
  4  1 3 3      35.85041000       5.00000000       0.00128690      49.14631700       1.50000000       0.10000000  0.04  2       1.00000000  0
  5  1 4 3      75.02739000       5.00000000       0.00128690      49.07497000       1.50000000       0.10000000  0.04  2       1.00000000  0
  6  1 5 3      90.88752000       5.00000000       0.00128690      48.96821200       1.50000000       0.10000000  0.04  2       1.00000000  0
  7  1 5 4      77.56565100       5.00000000       0.00128690      48.85982100       1.50000000       0.10000000  0.04  2       1.00000000  0
  8  1 6 4      74.86039700       5.00000000       0.00128690      48.76174200       1.50000000       0.10000000  0.04  1       1.00000000  0
  9  1 9 9     120.44695000       5.00000000       0.00127801      45.55067800       1.50000000       0.10000000  0.04  1       1.00000000  0
  10  1 9 10     112.31332000       5.00000000       0.00127801      45.40194300       1.50000000       0.10000000  0.04  2       1.00000000  0
  11  1 9 11     109.00368000       5.00000000       0.00127801      45.26052100       1.50000000       0.10000000  0.04  2       1.00000000  0
  12  1 9 12      91.23456600       5.00000000       0.00127801      45.13256800       1.50000000       0.10000000  0.04  2       1.00000000  0
  13  1 8 12      67.48600000       5.00000000       0.00127801      45.03114300       1.50000000       0.10000000  0.04  2       1.00000000  0
  14  1 8 13      24.60335500       5.00000000       0.00127801      44.97229800       1.50000000       0.10000000  0.04  2       1.00000000  0
  15  1 7 13      97.54794300       5.00000000       0.00127801      44.89424100       1.50000000       0.10000000  0.04  2       1.00000000  0
  16  1 7 14     104.97595000       5.00000000       0.00127801      44.76483200       1.50000000       0.10000000  0.04  2       1.00000000  0
  17  1 7 15       8.94544980       5.00000000       0.00127801      44.69203200       1.50000000       0.10000000  0.04  2       1.00000000  0
  18  1 6 15      92.63836700       5.00000000       0.00127801      44.62712100       1.50000000       0.10000000  0.04  1       1.00000000  0
END packagedata

BEGIN connectiondata
  1  -2
  2  1  -3
  3  2  -4
  4  3  -5
  5  4  -6
  6  5  -7
  7  6  -8
  8  7
  9  -10
  10  9  -11
  11  10  -12
  12  11  -13
  13  12  -14
  14  13  -15
  15  14  -16
  16  15  -17
  17  16  -18
  18  17
END connectiondata

BEGIN period  1
  1  INFLOW  40.0
END period  1

