# File generated by Flopy version 3.3.5 on 03/04/2022 at 11:14:13.
BEGIN options
  SAVE_FLOWS
  BUDGET  FILEOUT  gwf-lgr-child.sfr.bud
  MOVER
  UNIT_CONVERSION   86400.00000000
END options

BEGIN dimensions
  NREACHES  89
END dimensions

BEGIN packagedata
  1  1 1 4      24.63771100       5.00000000       0.00144483      48.62282200       1.50000000       0.10000000  0.04  1       1.00000000  0
  2  1 2 4      31.96624600       5.00000000       0.00144483      48.58193200       1.50000000       0.10000000  0.04  2       1.00000000  0
  3  1 2 3      26.37644200       5.00000000       0.00144483      48.53978300       1.50000000       0.10000000  0.04  2       1.00000000  0
  4  1 3 3      11.77388400       5.00000000       0.00144483      48.51222200       1.50000000       0.10000000  0.04  2       1.00000000  0
  5  1 3 2      22.92177200       5.00000000       0.00144483      48.48716000       1.50000000       0.10000000  0.04  2       1.00000000  0
  6  1 4 2      24.94973000       5.00000000       0.00144483      48.45257600       1.50000000       0.10000000  0.04  2       1.00000000  0
  7  1 5 2      23.87805000       5.00000000       0.00144483      48.41730100       1.50000000       0.10000000  0.04  2       1.00000000  0
  8  1 6 2      23.19031100       5.00000000       0.00144483      48.38329700       1.50000000       0.10000000  0.04  2       1.00000000  0
  9  1 7 2      24.76236500       5.00000000       0.00144483      48.34865600       1.50000000       0.10000000  0.04  2       1.00000000  0
  10  1 8 2      24.90862500       5.00000000       0.00144483      48.31277500       1.50000000       0.10000000  0.04  2       1.00000000  0
  11  1 8 3      34.36629900       5.00000000       0.00144483      48.26995100       1.50000000       0.10000000  0.04  2       1.00000000  0
  12  1 8 4      37.83453400       5.00000000       0.00144483      48.21779300       1.50000000       0.10000000  0.04  2       1.00000000  0
  13  1 8 5       6.73981760       5.00000000       0.00144483      48.18559300       1.50000000       0.10000000  0.04  2       1.00000000  0
  14  1 7 5      25.15085000       5.00000000       0.00144483      48.16255200       1.50000000       0.10000000  0.04  2       1.00000000  0
  15  1 6 5      22.88829200       5.00000000       0.00144483      48.12785000       1.50000000       0.10000000  0.04  2       1.00000000  0
  16  1 5 5      24.63005300       5.00000000       0.00144483      48.09352100       1.50000000       0.10000000  0.04  2       1.00000000  0
  17  1 4 5      24.10454200       5.00000000       0.00144483      48.05831500       1.50000000       0.10000000  0.04  2       1.00000000  0
  18  1 4 6      35.87337500       5.00000000       0.00144483      48.01498400       1.50000000       0.10000000  0.04  2       1.00000000  0
  19  1 4 7      20.10144600       5.00000000       0.00144483      47.97454800       1.50000000       0.10000000  0.04  2       1.00000000  0
  20  1 5 7      35.63693600       5.00000000       0.00144483      47.93428400       1.50000000       0.10000000  0.04  2       1.00000000  0
  21  1 5 8      39.27353700       5.00000000       0.00144483      47.88016500       1.50000000       0.10000000  0.04  2       1.00000000  0
  22  1 6 8       7.84773020       5.00000000       0.00144483      47.84612700       1.50000000       0.10000000  0.04  2       1.00000000  0
  23  1 6 9      15.48083500       5.00000000       0.00144483      47.82927300       1.50000000       0.10000000  0.04  2       1.00000000  0
  24  1 7 9      22.88319400       5.00000000       0.00144483      47.80155600       1.50000000       0.10000000  0.04  2       1.00000000  0
  25  1 8 9       6.61260030       5.00000000       0.00144483      47.78025100       1.50000000       0.10000000  0.04  2       1.00000000  0
  26  1 8 8      31.99589900       5.00000000       0.00144483      47.75235700       1.50000000       0.10000000  0.04  2       1.00000000  0
  27  1 9 8       9.43873790       5.00000000       0.00144483      47.72242400       1.50000000       0.10000000  0.04  2       1.00000000  0
  28  1 9 7      35.38551300       5.00000000       0.00144483      47.69004400       1.50000000       0.10000000  0.04  2       1.00000000  0
  29  1 9 6      35.47099300       5.00000000       0.00144483      47.63885500       1.50000000       0.10000000  0.04  2       1.00000000  0
  30  1 9 5      23.50007400       5.00000000       0.00144483      47.59625200       1.50000000       0.10000000  0.04  2       1.00000000  0
  31  1 10 5      18.41446900       5.00000000       0.00144483      47.56597500       1.50000000       0.10000000  0.04  2       1.00000000  0
  32  1 10 4      12.01691300       5.00000000       0.00144483      47.54399100       1.50000000       0.10000000  0.04  2       1.00000000  0
  33  1 11 4      24.69173200       5.00000000       0.00144483      47.51747100       1.50000000       0.10000000  0.04  2       1.00000000  0
  34  1 12 4      23.10546700       5.00000000       0.00144483      47.48294100       1.50000000       0.10000000  0.04  2       1.00000000  0
  35  1 13 4      23.70048300       5.00000000       0.00144483      47.44912700       1.50000000       0.10000000  0.04  2       1.00000000  0
  36  1 14 4      19.59610400       5.00000000       0.00144483      47.41785000       1.50000000       0.10000000  0.04  2       1.00000000  0
  37  1 14 5       5.75556800       5.00000000       0.00144483      47.39953600       1.50000000       0.10000000  0.04  2       1.00000000  0
  38  1 15 5      34.42311900       5.00000000       0.00144483      47.37051000       1.50000000       0.10000000  0.04  2       1.00000000  0
  39  1 15 6      36.13199200       5.00000000       0.00144483      47.31953800       1.50000000       0.10000000  0.04  2       1.00000000  0
  40  1 15 7       7.44244770       5.00000000       0.00144483      47.28805900       1.50000000       0.10000000  0.04  2       1.00000000  0
  41  1 14 7      35.56565900       5.00000000       0.00144483      47.25699200       1.50000000       0.10000000  0.04  2       1.00000000  0
  42  1 14 8       1.61596370       5.00000000       0.00144483      47.23012900       1.50000000       0.10000000  0.04  2       1.00000000  0
  43  1 13 8      32.31613200       5.00000000       0.00144483      47.20561600       1.50000000       0.10000000  0.04  2       1.00000000  0
  44  1 12 8      20.13187600       5.00000000       0.00144483      47.16772800       1.50000000       0.10000000  0.04  2       1.00000000  0
  45  1 12 9       6.52420620       5.00000000       0.00144483      47.14847200       1.50000000       0.10000000  0.04  2       1.00000000  0
  46  1 11 9      25.57563000       5.00000000       0.00144483      47.12528200       1.50000000       0.10000000  0.04  2       1.00000000  0
  47  1 10 9      25.57563000       5.00000000       0.00144483      47.08832900       1.50000000       0.10000000  0.04  2       1.00000000  0
  48  1 9 9      24.30356600       5.00000000       0.00144483      47.05229600       1.50000000       0.10000000  0.04  2       1.00000000  0
  49  1 8 9       1.91585040       5.00000000       0.00144483      47.03335600       1.50000000       0.10000000  0.04  2       1.00000000  0
  50  1 8 10      21.93132600       5.00000000       0.00144483      47.01612900       1.50000000       0.10000000  0.04  2       1.00000000  0
  51  1 7 10      23.84717600       5.00000000       0.00144483      46.98305500       1.50000000       0.10000000  0.04  2       1.00000000  0
  52  1 6 10      23.43220300       5.00000000       0.00144483      46.94890200       1.50000000       0.10000000  0.04  2       1.00000000  0
  53  1 5 10      23.24871800       5.00000000       0.00144483      46.91517600       1.50000000       0.10000000  0.04  2       1.00000000  0
  54  1 4 10      23.45505100       5.00000000       0.00144483      46.88143900       1.50000000       0.10000000  0.04  2       1.00000000  0
  55  1 3 10      15.17184300       5.00000000       0.00144483      46.85353500       1.50000000       0.10000000  0.04  2       1.00000000  0
  56  1 3 11      11.19633400       5.00000000       0.00144483      46.83448400       1.50000000       0.10000000  0.04  2       1.00000000  0
  57  1 2 11      34.93197600       5.00000000       0.00144483      46.80115900       1.50000000       0.10000000  0.04  2       1.00000000  0
  58  1 1 11       4.44927740       5.00000000       0.00144483      46.77271300       1.50000000       0.10000000  0.04  2       1.00000000  0
  59  1 1 12      36.03417200       5.00000000       0.00144483      46.74346500       1.50000000       0.10000000  0.04  2       1.00000000  0
  60  1 1 13      38.36556600       5.00000000       0.00144483      46.68971600       1.50000000       0.10000000  0.04  2       1.00000000  0
  61  1 1 14       0.87668590       5.00000000       0.00144483      46.66136900       1.50000000       0.10000000  0.04  2       1.00000000  0
  62  1 2 14      30.05975900       5.00000000       0.00144483      46.63901900       1.50000000       0.10000000  0.04  2       1.00000000  0
  63  1 3 14      25.35167100       5.00000000       0.00144483      46.59898800       1.50000000       0.10000000  0.04  2       1.00000000  0
  64  1 4 14      23.55411700       5.00000000       0.00144483      46.56366000       1.50000000       0.10000000  0.04  2       1.00000000  0
  65  1 5 14      24.69173800       5.00000000       0.00144483      46.52880500       1.50000000       0.10000000  0.04  2       1.00000000  0
  66  1 6 14      26.07422600       5.00000000       0.00144483      46.49213000       1.50000000       0.10000000  0.04  2       1.00000000  0
  67  1 7 14      13.54295700       5.00000000       0.00144483      46.46351200       1.50000000       0.10000000  0.04  2       1.00000000  0
  68  1 7 13      13.30343200       5.00000000       0.00144483      46.44411800       1.50000000       0.10000000  0.04  2       1.00000000  0
  69  1 8 13      28.14507900       5.00000000       0.00144483      46.41417300       1.50000000       0.10000000  0.04  2       1.00000000  0
  70  1 9 13      24.37308900       5.00000000       0.00144483      46.37623200       1.50000000       0.10000000  0.04  2       1.00000000  0
  71  1 10 13      23.21364200       5.00000000       0.00144483      46.34185800       1.50000000       0.10000000  0.04  2       1.00000000  0
  72  1 11 13      23.29810700       5.00000000       0.00144483      46.30825400       1.50000000       0.10000000  0.04  2       1.00000000  0
  73  1 12 13      24.62775800       5.00000000       0.00144483      46.27363200       1.50000000       0.10000000  0.04  2       1.00000000  0
  74  1 13 13      27.71513700       5.00000000       0.00144483      46.23582100       1.50000000       0.10000000  0.04  2       1.00000000  0
  75  1 13 14       1.76450650       5.00000000       0.00144483      46.21452300       1.50000000       0.10000000  0.04  2       1.00000000  0
  76  1 14 14      39.54923200       5.00000000       0.00144483      46.18467700       1.50000000       0.10000000  0.04  2       1.00000000  0
  77  1 14 15      37.14400900       5.00000000       0.00144483      46.12927200       1.50000000       0.10000000  0.04  2       1.00000000  0
  78  1 14 16      14.94329000       5.00000000       0.00144483      46.09164400       1.50000000       0.10000000  0.04  2       1.00000000  0
  79  1 13 16      24.85125400       5.00000000       0.00144483      46.06289700       1.50000000       0.10000000  0.04  2       1.00000000  0
  80  1 12 16      23.73743200       5.00000000       0.00144483      46.02779400       1.50000000       0.10000000  0.04  2       1.00000000  0
  81  1 11 16      15.96773600       5.00000000       0.00144483      45.99911100       1.50000000       0.10000000  0.04  2       1.00000000  0
  82  1 11 17      10.63283200       5.00000000       0.00144483      45.97989700       1.50000000       0.10000000  0.04  2       1.00000000  0
  83  1 10 17      11.42593800       5.00000000       0.00144483      45.96395900       1.50000000       0.10000000  0.04  2       1.00000000  0
  84  1 10 16      20.00929500       5.00000000       0.00144483      45.94125000       1.50000000       0.10000000  0.04  2       1.00000000  0
  85  1 9 16      24.64120700       5.00000000       0.00144483      45.90899300       1.50000000       0.10000000  0.04  2       1.00000000  0
  86  1 8 16      27.96058500       5.00000000       0.00144483      45.87099500       1.50000000       0.10000000  0.04  2       1.00000000  0
  87  1 7 16       4.64527230       5.00000000       0.00144483      45.84743900       1.50000000       0.10000000  0.04  2       1.00000000  0
  88  1 7 17      36.71773500       5.00000000       0.00144483      45.81755800       1.50000000       0.10000000  0.04  2       1.00000000  0
  89  1 7 18      34.46907400       5.00000000       0.00144483      45.76613200       1.50000000       0.10000000  0.04  1       1.00000000  0
END packagedata

BEGIN connectiondata
  1  -2
  2  1  -3
  3  2  -4
  4  3  -5
  5  4  -6
  6  5  -7
  7  6  -8
  8  7  -9
  9  8  -10
  10  9  -11
  11  10  -12
  12  11  -13
  13  12  -14
  14  13  -15
  15  14  -16
  16  15  -17
  17  16  -18
  18  17  -19
  19  18  -20
  20  19  -21
  21  20  -22
  22  21  -23
  23  22  -24
  24  23  -25
  25  24  -26
  26  25  -27
  27  26  -28
  28  27  -29
  29  28  -30
  30  29  -31
  31  30  -32
  32  31  -33
  33  32  -34
  34  33  -35
  35  34  -36
  36  35  -37
  37  36  -38
  38  37  -39
  39  38  -40
  40  39  -41
  41  40  -42
  42  41  -43
  43  42  -44
  44  43  -45
  45  44  -46
  46  45  -47
  47  46  -48
  48  47  -49
  49  48  -50
  50  49  -51
  51  50  -52
  52  51  -53
  53  52  -54
  54  53  -55
  55  54  -56
  56  55  -57
  57  56  -58
  58  57  -59
  59  58  -60
  60  59  -61
  61  60  -62
  62  61  -63
  63  62  -64
  64  63  -65
  65  64  -66
  66  65  -67
  67  66  -68
  68  67  -69
  69  68  -70
  70  69  -71
  71  70  -72
  72  71  -73
  73  72  -74
  74  73  -75
  75  74  -76
  76  75  -77
  77  76  -78
  78  77  -79
  79  78  -80
  80  79  -81
  81  80  -82
  82  81  -83
  83  82  -84
  84  83  -85
  85  84  -86
  86  85  -87
  87  86  -88
  88  87  -89
  89  88
END connectiondata

BEGIN period  1
  1  INFLOW  0.0
END period  1

