# File generated by Flopy version 3.3.5 on 03/04/2022 at 11:14:13.
BEGIN options
END options

BEGIN dimensions
  MAXBOUND  45
END dimensions

BEGIN period  1
  1 1 15      44.75000000
  1 2 15      44.75000000
  1 3 15      44.75000000
  1 4 15      44.75000000
  1 5 15      44.75000000
  1 6 15      44.75000000
  1 7 15      44.75000000
  1 8 15      44.75000000
  1 9 15      44.75000000
  1 10 15      44.75000000
  1 11 15      44.75000000
  1 12 15      44.75000000
  1 13 15      44.75000000
  1 14 15      44.75000000
  1 15 15      44.75000000
  2 1 15      44.75000000
  2 2 15      44.75000000
  2 3 15      44.75000000
  2 4 15      44.75000000
  2 5 15      44.75000000
  2 6 15      44.75000000
  2 7 15      44.75000000
  2 8 15      44.75000000
  2 9 15      44.75000000
  2 10 15      44.75000000
  2 11 15      44.75000000
  2 12 15      44.75000000
  2 13 15      44.75000000
  2 14 15      44.75000000
  2 15 15      44.75000000
  3 1 15      44.75000000
  3 2 15      44.75000000
  3 3 15      44.75000000
  3 4 15      44.75000000
  3 5 15      44.75000000
  3 6 15      44.75000000
  3 7 15      44.75000000
  3 8 15      44.75000000
  3 9 15      44.75000000
  3 10 15      44.75000000
  3 11 15      44.75000000
  3 12 15      44.75000000
  3 13 15      44.75000000
  3 14 15      44.75000000
  3 15 15      44.75000000
END period  1

