# File generated by Flopy version 3.3.5 on 03/04/2022 at 11:14:13.
BEGIN griddata
  strt  LAYERED
    INTERNAL  FACTOR  1.0
          49.03599930      49.03599930      49.03599930      48.67900085      48.67900085      48.67900085      48.32099915      48.32099915      48.32099915      47.96400070      47.96400070      47.96400070      47.60699844      47.60699844      47.60699844      47.25000000      47.25000000      47.25000000
          49.03599930      49.03599930      49.03599930      48.67900085      48.67900085      48.67900085      48.32099915      48.32099915      48.32099915      47.96400070      47.96400070      47.96400070      47.60699844      47.60699844      47.60699844      47.25000000      47.25000000      47.25000000
          49.03599930      49.03599930      49.03599930      48.67900085      48.67900085      48.67900085      48.32099915      48.32099915      48.32099915      47.96400070      47.96400070      47.96400070      47.60699844      47.60699844      47.60699844      47.25000000      47.25000000      47.25000000
          49.03599930      49.03599930      49.03599930      48.67900085      48.67900085      48.67900085      48.32099915      48.32099915      48.32099915      47.96400070      47.96400070      47.96400070      47.60699844      47.60699844      47.60699844      47.25000000      47.25000000      47.25000000
          49.03599930      49.03599930      49.03599930      48.67900085      48.67900085      48.67900085      48.32099915      48.32099915      48.32099915      47.96400070      47.96400070      47.96400070      47.60699844      47.60699844      47.60699844      47.25000000      47.25000000      47.25000000
          49.03599930      49.03599930      49.03599930      48.67900085      48.67900085      48.67900085      48.32099915      48.32099915      48.32099915      47.96400070      47.96400070      47.96400070      47.60699844      47.60699844      47.60699844      47.25000000      47.25000000      47.25000000
          49.03599930      49.03599930      49.03599930      48.67900085      48.67900085      48.67900085      48.32099915      48.32099915      48.32099915      47.96400070      47.96400070      47.96400070      47.60699844      47.60699844      47.60699844      47.25000000      47.25000000      47.25000000
          49.03599930      49.03599930      49.03599930      48.67900085      48.67900085      48.67900085      48.32099915      48.32099915      48.32099915      47.96400070      47.96400070      47.96400070      47.60699844      47.60699844      47.60699844      47.25000000      47.25000000      47.25000000
          49.03599930      49.03599930      49.03599930      48.67900085      48.67900085      48.67900085      48.32099915      48.32099915      48.32099915      47.96400070      47.96400070      47.96400070      47.60699844      47.60699844      47.60699844      47.25000000      47.25000000      47.25000000
          49.03599930      49.03599930      49.03599930      48.67900085      48.67900085      48.67900085      48.32099915      48.32099915      48.32099915      47.96400070      47.96400070      47.96400070      47.60699844      47.60699844      47.60699844      47.25000000      47.25000000      47.25000000
          49.03599930      49.03599930      49.03599930      48.67900085      48.67900085      48.67900085      48.32099915      48.32099915      48.32099915      47.96400070      47.96400070      47.96400070      47.60699844      47.60699844      47.60699844      47.25000000      47.25000000      47.25000000
          49.03599930      49.03599930      49.03599930      48.67900085      48.67900085      48.67900085      48.32099915      48.32099915      48.32099915      47.96400070      47.96400070      47.96400070      47.60699844      47.60699844      47.60699844      47.25000000      47.25000000      47.25000000
          49.03599930      49.03599930      49.03599930      48.67900085      48.67900085      48.67900085      48.32099915      48.32099915      48.32099915      47.96400070      47.96400070      47.96400070      47.60699844      47.60699844      47.60699844      47.25000000      47.25000000      47.25000000
          49.03599930      49.03599930      49.03599930      48.67900085      48.67900085      48.67900085      48.32099915      48.32099915      48.32099915      47.96400070      47.96400070      47.96400070      47.60699844      47.60699844      47.60699844      47.25000000      47.25000000      47.25000000
          49.03599930      49.03599930      49.03599930      48.67900085      48.67900085      48.67900085      48.32099915      48.32099915      48.32099915      47.96400070      47.96400070      47.96400070      47.60699844      47.60699844      47.60699844      47.25000000      47.25000000      47.25000000
    INTERNAL  FACTOR  1.0
          49.03599930      49.03599930      49.03599930      48.67900085      48.67900085      48.67900085      48.32099915      48.32099915      48.32099915      47.96400070      47.96400070      47.96400070      47.60699844      47.60699844      47.60699844      47.25000000      47.25000000      47.25000000
          49.03599930      49.03599930      49.03599930      48.67900085      48.67900085      48.67900085      48.32099915      48.32099915      48.32099915      47.96400070      47.96400070      47.96400070      47.60699844      47.60699844      47.60699844      47.25000000      47.25000000      47.25000000
          49.03599930      49.03599930      49.03599930      48.67900085      48.67900085      48.67900085      48.32099915      48.32099915      48.32099915      47.96400070      47.96400070      47.96400070      47.60699844      47.60699844      47.60699844      47.25000000      47.25000000      47.25000000
          49.03599930      49.03599930      49.03599930      48.67900085      48.67900085      48.67900085      48.32099915      48.32099915      48.32099915      47.96400070      47.96400070      47.96400070      47.60699844      47.60699844      47.60699844      47.25000000      47.25000000      47.25000000
          49.03599930      49.03599930      49.03599930      48.67900085      48.67900085      48.67900085      48.32099915      48.32099915      48.32099915      47.96400070      47.96400070      47.96400070      47.60699844      47.60699844      47.60699844      47.25000000      47.25000000      47.25000000
          49.03599930      49.03599930      49.03599930      48.67900085      48.67900085      48.67900085      48.32099915      48.32099915      48.32099915      47.96400070      47.96400070      47.96400070      47.60699844      47.60699844      47.60699844      47.25000000      47.25000000      47.25000000
          49.03599930      49.03599930      49.03599930      48.67900085      48.67900085      48.67900085      48.32099915      48.32099915      48.32099915      47.96400070      47.96400070      47.96400070      47.60699844      47.60699844      47.60699844      47.25000000      47.25000000      47.25000000
          49.03599930      49.03599930      49.03599930      48.67900085      48.67900085      48.67900085      48.32099915      48.32099915      48.32099915      47.96400070      47.96400070      47.96400070      47.60699844      47.60699844      47.60699844      47.25000000      47.25000000      47.25000000
          49.03599930      49.03599930      49.03599930      48.67900085      48.67900085      48.67900085      48.32099915      48.32099915      48.32099915      47.96400070      47.96400070      47.96400070      47.60699844      47.60699844      47.60699844      47.25000000      47.25000000      47.25000000
          49.03599930      49.03599930      49.03599930      48.67900085      48.67900085      48.67900085      48.32099915      48.32099915      48.32099915      47.96400070      47.96400070      47.96400070      47.60699844      47.60699844      47.60699844      47.25000000      47.25000000      47.25000000
          49.03599930      49.03599930      49.03599930      48.67900085      48.67900085      48.67900085      48.32099915      48.32099915      48.32099915      47.96400070      47.96400070      47.96400070      47.60699844      47.60699844      47.60699844      47.25000000      47.25000000      47.25000000
          49.03599930      49.03599930      49.03599930      48.67900085      48.67900085      48.67900085      48.32099915      48.32099915      48.32099915      47.96400070      47.96400070      47.96400070      47.60699844      47.60699844      47.60699844      47.25000000      47.25000000      47.25000000
          49.03599930      49.03599930      49.03599930      48.67900085      48.67900085      48.67900085      48.32099915      48.32099915      48.32099915      47.96400070      47.96400070      47.96400070      47.60699844      47.60699844      47.60699844      47.25000000      47.25000000      47.25000000
          49.03599930      49.03599930      49.03599930      48.67900085      48.67900085      48.67900085      48.32099915      48.32099915      48.32099915      47.96400070      47.96400070      47.96400070      47.60699844      47.60699844      47.60699844      47.25000000      47.25000000      47.25000000
          49.03599930      49.03599930      49.03599930      48.67900085      48.67900085      48.67900085      48.32099915      48.32099915      48.32099915      47.96400070      47.96400070      47.96400070      47.60699844      47.60699844      47.60699844      47.25000000      47.25000000      47.25000000
    INTERNAL  FACTOR  1.0
          49.03599930      49.03599930      49.03599930      48.67900085      48.67900085      48.67900085      48.32099915      48.32099915      48.32099915      47.96400070      47.96400070      47.96400070      47.60699844      47.60699844      47.60699844      47.25000000      47.25000000      47.25000000
          49.03599930      49.03599930      49.03599930      48.67900085      48.67900085      48.67900085      48.32099915      48.32099915      48.32099915      47.96400070      47.96400070      47.96400070      47.60699844      47.60699844      47.60699844      47.25000000      47.25000000      47.25000000
          49.03599930      49.03599930      49.03599930      48.67900085      48.67900085      48.67900085      48.32099915      48.32099915      48.32099915      47.96400070      47.96400070      47.96400070      47.60699844      47.60699844      47.60699844      47.25000000      47.25000000      47.25000000
          49.03599930      49.03599930      49.03599930      48.67900085      48.67900085      48.67900085      48.32099915      48.32099915      48.32099915      47.96400070      47.96400070      47.96400070      47.60699844      47.60699844      47.60699844      47.25000000      47.25000000      47.25000000
          49.03599930      49.03599930      49.03599930      48.67900085      48.67900085      48.67900085      48.32099915      48.32099915      48.32099915      47.96400070      47.96400070      47.96400070      47.60699844      47.60699844      47.60699844      47.25000000      47.25000000      47.25000000
          49.03599930      49.03599930      49.03599930      48.67900085      48.67900085      48.67900085      48.32099915      48.32099915      48.32099915      47.96400070      47.96400070      47.96400070      47.60699844      47.60699844      47.60699844      47.25000000      47.25000000      47.25000000
          49.03599930      49.03599930      49.03599930      48.67900085      48.67900085      48.67900085      48.32099915      48.32099915      48.32099915      47.96400070      47.96400070      47.96400070      47.60699844      47.60699844      47.60699844      47.25000000      47.25000000      47.25000000
          49.03599930      49.03599930      49.03599930      48.67900085      48.67900085      48.67900085      48.32099915      48.32099915      48.32099915      47.96400070      47.96400070      47.96400070      47.60699844      47.60699844      47.60699844      47.25000000      47.25000000      47.25000000
          49.03599930      49.03599930      49.03599930      48.67900085      48.67900085      48.67900085      48.32099915      48.32099915      48.32099915      47.96400070      47.96400070      47.96400070      47.60699844      47.60699844      47.60699844      47.25000000      47.25000000      47.25000000
          49.03599930      49.03599930      49.03599930      48.67900085      48.67900085      48.67900085      48.32099915      48.32099915      48.32099915      47.96400070      47.96400070      47.96400070      47.60699844      47.60699844      47.60699844      47.25000000      47.25000000      47.25000000
          49.03599930      49.03599930      49.03599930      48.67900085      48.67900085      48.67900085      48.32099915      48.32099915      48.32099915      47.96400070      47.96400070      47.96400070      47.60699844      47.60699844      47.60699844      47.25000000      47.25000000      47.25000000
          49.03599930      49.03599930      49.03599930      48.67900085      48.67900085      48.67900085      48.32099915      48.32099915      48.32099915      47.96400070      47.96400070      47.96400070      47.60699844      47.60699844      47.60699844      47.25000000      47.25000000      47.25000000
          49.03599930      49.03599930      49.03599930      48.67900085      48.67900085      48.67900085      48.32099915      48.32099915      48.32099915      47.96400070      47.96400070      47.96400070      47.60699844      47.60699844      47.60699844      47.25000000      47.25000000      47.25000000
          49.03599930      49.03599930      49.03599930      48.67900085      48.67900085      48.67900085      48.32099915      48.32099915      48.32099915      47.96400070      47.96400070      47.96400070      47.60699844      47.60699844      47.60699844      47.25000000      47.25000000      47.25000000
          49.03599930      49.03599930      49.03599930      48.67900085      48.67900085      48.67900085      48.32099915      48.32099915      48.32099915      47.96400070      47.96400070      47.96400070      47.60699844      47.60699844      47.60699844      47.25000000      47.25000000      47.25000000
    INTERNAL  FACTOR  1.0
          49.03599930      49.03599930      49.03599930      48.67900085      48.67900085      48.67900085      48.32099915      48.32099915      48.32099915      47.96400070      47.96400070      47.96400070      47.60699844      47.60699844      47.60699844      47.25000000      47.25000000      47.25000000
          49.03599930      49.03599930      49.03599930      48.67900085      48.67900085      48.67900085      48.32099915      48.32099915      48.32099915      47.96400070      47.96400070      47.96400070      47.60699844      47.60699844      47.60699844      47.25000000      47.25000000      47.25000000
          49.03599930      49.03599930      49.03599930      48.67900085      48.67900085      48.67900085      48.32099915      48.32099915      48.32099915      47.96400070      47.96400070      47.96400070      47.60699844      47.60699844      47.60699844      47.25000000      47.25000000      47.25000000
          49.03599930      49.03599930      49.03599930      48.67900085      48.67900085      48.67900085      48.32099915      48.32099915      48.32099915      47.96400070      47.96400070      47.96400070      47.60699844      47.60699844      47.60699844      47.25000000      47.25000000      47.25000000
          49.03599930      49.03599930      49.03599930      48.67900085      48.67900085      48.67900085      48.32099915      48.32099915      48.32099915      47.96400070      47.96400070      47.96400070      47.60699844      47.60699844      47.60699844      47.25000000      47.25000000      47.25000000
          49.03599930      49.03599930      49.03599930      48.67900085      48.67900085      48.67900085      48.32099915      48.32099915      48.32099915      47.96400070      47.96400070      47.96400070      47.60699844      47.60699844      47.60699844      47.25000000      47.25000000      47.25000000
          49.03599930      49.03599930      49.03599930      48.67900085      48.67900085      48.67900085      48.32099915      48.32099915      48.32099915      47.96400070      47.96400070      47.96400070      47.60699844      47.60699844      47.60699844      47.25000000      47.25000000      47.25000000
          49.03599930      49.03599930      49.03599930      48.67900085      48.67900085      48.67900085      48.32099915      48.32099915      48.32099915      47.96400070      47.96400070      47.96400070      47.60699844      47.60699844      47.60699844      47.25000000      47.25000000      47.25000000
          49.03599930      49.03599930      49.03599930      48.67900085      48.67900085      48.67900085      48.32099915      48.32099915      48.32099915      47.96400070      47.96400070      47.96400070      47.60699844      47.60699844      47.60699844      47.25000000      47.25000000      47.25000000
          49.03599930      49.03599930      49.03599930      48.67900085      48.67900085      48.67900085      48.32099915      48.32099915      48.32099915      47.96400070      47.96400070      47.96400070      47.60699844      47.60699844      47.60699844      47.25000000      47.25000000      47.25000000
          49.03599930      49.03599930      49.03599930      48.67900085      48.67900085      48.67900085      48.32099915      48.32099915      48.32099915      47.96400070      47.96400070      47.96400070      47.60699844      47.60699844      47.60699844      47.25000000      47.25000000      47.25000000
          49.03599930      49.03599930      49.03599930      48.67900085      48.67900085      48.67900085      48.32099915      48.32099915      48.32099915      47.96400070      47.96400070      47.96400070      47.60699844      47.60699844      47.60699844      47.25000000      47.25000000      47.25000000
          49.03599930      49.03599930      49.03599930      48.67900085      48.67900085      48.67900085      48.32099915      48.32099915      48.32099915      47.96400070      47.96400070      47.96400070      47.60699844      47.60699844      47.60699844      47.25000000      47.25000000      47.25000000
          49.03599930      49.03599930      49.03599930      48.67900085      48.67900085      48.67900085      48.32099915      48.32099915      48.32099915      47.96400070      47.96400070      47.96400070      47.60699844      47.60699844      47.60699844      47.25000000      47.25000000      47.25000000
          49.03599930      49.03599930      49.03599930      48.67900085      48.67900085      48.67900085      48.32099915      48.32099915      48.32099915      47.96400070      47.96400070      47.96400070      47.60699844      47.60699844      47.60699844      47.25000000      47.25000000      47.25000000
    INTERNAL  FACTOR  1.0
          49.03599930      49.03599930      49.03599930      48.67900085      48.67900085      48.67900085      48.32099915      48.32099915      48.32099915      47.96400070      47.96400070      47.96400070      47.60699844      47.60699844      47.60699844      47.25000000      47.25000000      47.25000000
          49.03599930      49.03599930      49.03599930      48.67900085      48.67900085      48.67900085      48.32099915      48.32099915      48.32099915      47.96400070      47.96400070      47.96400070      47.60699844      47.60699844      47.60699844      47.25000000      47.25000000      47.25000000
          49.03599930      49.03599930      49.03599930      48.67900085      48.67900085      48.67900085      48.32099915      48.32099915      48.32099915      47.96400070      47.96400070      47.96400070      47.60699844      47.60699844      47.60699844      47.25000000      47.25000000      47.25000000
          49.03599930      49.03599930      49.03599930      48.67900085      48.67900085      48.67900085      48.32099915      48.32099915      48.32099915      47.96400070      47.96400070      47.96400070      47.60699844      47.60699844      47.60699844      47.25000000      47.25000000      47.25000000
          49.03599930      49.03599930      49.03599930      48.67900085      48.67900085      48.67900085      48.32099915      48.32099915      48.32099915      47.96400070      47.96400070      47.96400070      47.60699844      47.60699844      47.60699844      47.25000000      47.25000000      47.25000000
          49.03599930      49.03599930      49.03599930      48.67900085      48.67900085      48.67900085      48.32099915      48.32099915      48.32099915      47.96400070      47.96400070      47.96400070      47.60699844      47.60699844      47.60699844      47.25000000      47.25000000      47.25000000
          49.03599930      49.03599930      49.03599930      48.67900085      48.67900085      48.67900085      48.32099915      48.32099915      48.32099915      47.96400070      47.96400070      47.96400070      47.60699844      47.60699844      47.60699844      47.25000000      47.25000000      47.25000000
          49.03599930      49.03599930      49.03599930      48.67900085      48.67900085      48.67900085      48.32099915      48.32099915      48.32099915      47.96400070      47.96400070      47.96400070      47.60699844      47.60699844      47.60699844      47.25000000      47.25000000      47.25000000
          49.03599930      49.03599930      49.03599930      48.67900085      48.67900085      48.67900085      48.32099915      48.32099915      48.32099915      47.96400070      47.96400070      47.96400070      47.60699844      47.60699844      47.60699844      47.25000000      47.25000000      47.25000000
          49.03599930      49.03599930      49.03599930      48.67900085      48.67900085      48.67900085      48.32099915      48.32099915      48.32099915      47.96400070      47.96400070      47.96400070      47.60699844      47.60699844      47.60699844      47.25000000      47.25000000      47.25000000
          49.03599930      49.03599930      49.03599930      48.67900085      48.67900085      48.67900085      48.32099915      48.32099915      48.32099915      47.96400070      47.96400070      47.96400070      47.60699844      47.60699844      47.60699844      47.25000000      47.25000000      47.25000000
          49.03599930      49.03599930      49.03599930      48.67900085      48.67900085      48.67900085      48.32099915      48.32099915      48.32099915      47.96400070      47.96400070      47.96400070      47.60699844      47.60699844      47.60699844      47.25000000      47.25000000      47.25000000
          49.03599930      49.03599930      49.03599930      48.67900085      48.67900085      48.67900085      48.32099915      48.32099915      48.32099915      47.96400070      47.96400070      47.96400070      47.60699844      47.60699844      47.60699844      47.25000000      47.25000000      47.25000000
          49.03599930      49.03599930      49.03599930      48.67900085      48.67900085      48.67900085      48.32099915      48.32099915      48.32099915      47.96400070      47.96400070      47.96400070      47.60699844      47.60699844      47.60699844      47.25000000      47.25000000      47.25000000
          49.03599930      49.03599930      49.03599930      48.67900085      48.67900085      48.67900085      48.32099915      48.32099915      48.32099915      47.96400070      47.96400070      47.96400070      47.60699844      47.60699844      47.60699844      47.25000000      47.25000000      47.25000000
    INTERNAL  FACTOR  1.0
          49.03599930      49.03599930      49.03599930      48.67900085      48.67900085      48.67900085      48.32099915      48.32099915      48.32099915      47.96400070      47.96400070      47.96400070      47.60699844      47.60699844      47.60699844      47.25000000      47.25000000      47.25000000
          49.03599930      49.03599930      49.03599930      48.67900085      48.67900085      48.67900085      48.32099915      48.32099915      48.32099915      47.96400070      47.96400070      47.96400070      47.60699844      47.60699844      47.60699844      47.25000000      47.25000000      47.25000000
          49.03599930      49.03599930      49.03599930      48.67900085      48.67900085      48.67900085      48.32099915      48.32099915      48.32099915      47.96400070      47.96400070      47.96400070      47.60699844      47.60699844      47.60699844      47.25000000      47.25000000      47.25000000
          49.03599930      49.03599930      49.03599930      48.67900085      48.67900085      48.67900085      48.32099915      48.32099915      48.32099915      47.96400070      47.96400070      47.96400070      47.60699844      47.60699844      47.60699844      47.25000000      47.25000000      47.25000000
          49.03599930      49.03599930      49.03599930      48.67900085      48.67900085      48.67900085      48.32099915      48.32099915      48.32099915      47.96400070      47.96400070      47.96400070      47.60699844      47.60699844      47.60699844      47.25000000      47.25000000      47.25000000
          49.03599930      49.03599930      49.03599930      48.67900085      48.67900085      48.67900085      48.32099915      48.32099915      48.32099915      47.96400070      47.96400070      47.96400070      47.60699844      47.60699844      47.60699844      47.25000000      47.25000000      47.25000000
          49.03599930      49.03599930      49.03599930      48.67900085      48.67900085      48.67900085      48.32099915      48.32099915      48.32099915      47.96400070      47.96400070      47.96400070      47.60699844      47.60699844      47.60699844      47.25000000      47.25000000      47.25000000
          49.03599930      49.03599930      49.03599930      48.67900085      48.67900085      48.67900085      48.32099915      48.32099915      48.32099915      47.96400070      47.96400070      47.96400070      47.60699844      47.60699844      47.60699844      47.25000000      47.25000000      47.25000000
          49.03599930      49.03599930      49.03599930      48.67900085      48.67900085      48.67900085      48.32099915      48.32099915      48.32099915      47.96400070      47.96400070      47.96400070      47.60699844      47.60699844      47.60699844      47.25000000      47.25000000      47.25000000
          49.03599930      49.03599930      49.03599930      48.67900085      48.67900085      48.67900085      48.32099915      48.32099915      48.32099915      47.96400070      47.96400070      47.96400070      47.60699844      47.60699844      47.60699844      47.25000000      47.25000000      47.25000000
          49.03599930      49.03599930      49.03599930      48.67900085      48.67900085      48.67900085      48.32099915      48.32099915      48.32099915      47.96400070      47.96400070      47.96400070      47.60699844      47.60699844      47.60699844      47.25000000      47.25000000      47.25000000
          49.03599930      49.03599930      49.03599930      48.67900085      48.67900085      48.67900085      48.32099915      48.32099915      48.32099915      47.96400070      47.96400070      47.96400070      47.60699844      47.60699844      47.60699844      47.25000000      47.25000000      47.25000000
          49.03599930      49.03599930      49.03599930      48.67900085      48.67900085      48.67900085      48.32099915      48.32099915      48.32099915      47.96400070      47.96400070      47.96400070      47.60699844      47.60699844      47.60699844      47.25000000      47.25000000      47.25000000
          49.03599930      49.03599930      49.03599930      48.67900085      48.67900085      48.67900085      48.32099915      48.32099915      48.32099915      47.96400070      47.96400070      47.96400070      47.60699844      47.60699844      47.60699844      47.25000000      47.25000000      47.25000000
          49.03599930      49.03599930      49.03599930      48.67900085      48.67900085      48.67900085      48.32099915      48.32099915      48.32099915      47.96400070      47.96400070      47.96400070      47.60699844      47.60699844      47.60699844      47.25000000      47.25000000      47.25000000
END griddata

