# File generated by Flopy version 3.3.5 on 03/04/2022 at 11:14:13.
BEGIN options
END options

BEGIN dimensions
  NLAY  6
  NROW  15
  NCOL  18
END dimensions

BEGIN griddata
  delr
    INTERNAL  FACTOR  1.0
        34.31333415      34.31333415      34.31333415      34.31333415      34.31333415      34.31333415      34.31333415      34.31333415      34.31333415      34.31333415      34.31333415      34.31333415      34.31333415      34.31333415      34.31333415      34.31333415      34.31333415      34.31333415
  delc
    INTERNAL  FACTOR  1.0
        22.87555440      22.87555440      22.87555440      22.87555440      22.87555440      22.87555440      22.87555440      22.87555440      22.87555440      22.87555440      22.87555440      22.87555440      22.87555440      22.87555440      22.87555440
  top
    INTERNAL  FACTOR  1.0
        49.28599930      49.28599930      49.28599930      48.92900085      48.92900085      48.92900085      48.57099915      48.57099915      48.57099915      48.21400070      48.21400070      48.21400070      47.85699844      47.85699844      47.85699844      47.50000000      47.50000000      47.50000000
        49.28599930      49.28599930      49.28599930      48.92900085      48.92900085      48.92900085      48.57099915      48.57099915      48.57099915      48.21400070      48.21400070      48.21400070      47.85699844      47.85699844      47.85699844      47.50000000      47.50000000      47.50000000
        49.28599930      49.28599930      49.28599930      48.92900085      48.92900085      48.92900085      48.57099915      48.57099915      48.57099915      48.21400070      48.21400070      48.21400070      47.85699844      47.85699844      47.85699844      47.50000000      47.50000000      47.50000000
        49.28599930      49.28599930      49.28599930      48.92900085      48.92900085      48.92900085      48.57099915      48.57099915      48.57099915      48.21400070      48.21400070      48.21400070      47.85699844      47.85699844      47.85699844      47.50000000      47.50000000      47.50000000
        49.28599930      49.28599930      49.28599930      48.92900085      48.92900085      48.92900085      48.57099915      48.57099915      48.57099915      48.21400070      48.21400070      48.21400070      47.85699844      47.85699844      47.85699844      47.50000000      47.50000000      47.50000000
        49.28599930      49.28599930      49.28599930      48.92900085      48.92900085      48.92900085      48.57099915      48.57099915      48.57099915      48.21400070      48.21400070      48.21400070      47.85699844      47.85699844      47.85699844      47.50000000      47.50000000      47.50000000
        49.28599930      49.28599930      49.28599930      48.92900085      48.92900085      48.92900085      48.57099915      48.57099915      48.57099915      48.21400070      48.21400070      48.21400070      47.85699844      47.85699844      47.85699844      47.50000000      47.50000000      47.50000000
        49.28599930      49.28599930      49.28599930      48.92900085      48.92900085      48.92900085      48.57099915      48.57099915      48.57099915      48.21400070      48.21400070      48.21400070      47.85699844      47.85699844      47.85699844      47.50000000      47.50000000      47.50000000
        49.28599930      49.28599930      49.28599930      48.92900085      48.92900085      48.92900085      48.57099915      48.57099915      48.57099915      48.21400070      48.21400070      48.21400070      47.85699844      47.85699844      47.85699844      47.50000000      47.50000000      47.50000000
        49.28599930      49.28599930      49.28599930      48.92900085      48.92900085      48.92900085      48.57099915      48.57099915      48.57099915      48.21400070      48.21400070      48.21400070      47.85699844      47.85699844      47.85699844      47.50000000      47.50000000      47.50000000
        49.28599930      49.28599930      49.28599930      48.92900085      48.92900085      48.92900085      48.57099915      48.57099915      48.57099915      48.21400070      48.21400070      48.21400070      47.85699844      47.85699844      47.85699844      47.50000000      47.50000000      47.50000000
        49.28599930      49.28599930      49.28599930      48.92900085      48.92900085      48.92900085      48.57099915      48.57099915      48.57099915      48.21400070      48.21400070      48.21400070      47.85699844      47.85699844      47.85699844      47.50000000      47.50000000      47.50000000
        49.28599930      49.28599930      49.28599930      48.92900085      48.92900085      48.92900085      48.57099915      48.57099915      48.57099915      48.21400070      48.21400070      48.21400070      47.85699844      47.85699844      47.85699844      47.50000000      47.50000000      47.50000000
        49.28599930      49.28599930      49.28599930      48.92900085      48.92900085      48.92900085      48.57099915      48.57099915      48.57099915      48.21400070      48.21400070      48.21400070      47.85699844      47.85699844      47.85699844      47.50000000      47.50000000      47.50000000
        49.28599930      49.28599930      49.28599930      48.92900085      48.92900085      48.92900085      48.57099915      48.57099915      48.57099915      48.21400070      48.21400070      48.21400070      47.85699844      47.85699844      47.85699844      47.50000000      47.50000000      47.50000000
  botm  LAYERED
    INTERNAL  FACTOR  1.0
          43.73033269      43.73033269      43.73033269      43.37333425      43.37333425      43.37333425      43.01533254      43.01533254      43.01533254      42.65833410      42.65833410      42.65833410      42.30133247      42.30133247      42.30133247      41.94433339      41.94433339      41.94433339
          43.73033269      43.73033269      43.73033269      43.37333425      43.37333425      43.37333425      43.01533254      43.01533254      43.01533254      42.65833410      42.65833410      42.65833410      42.30133247      42.30133247      42.30133247      41.94433339      41.94433339      41.94433339
          43.73033269      43.73033269      43.73033269      43.37333425      43.37333425      43.37333425      43.01533254      43.01533254      43.01533254      42.65833410      42.65833410      42.65833410      42.30133247      42.30133247      42.30133247      41.94433339      41.94433339      41.94433339
          43.73033269      43.73033269      43.73033269      43.37333425      43.37333425      43.37333425      43.01533254      43.01533254      43.01533254      42.65833410      42.65833410      42.65833410      42.30133247      42.30133247      42.30133247      41.94433339      41.94433339      41.94433339
          43.73033269      43.73033269      43.73033269      43.37333425      43.37333425      43.37333425      43.01533254      43.01533254      43.01533254      42.65833410      42.65833410      42.65833410      42.30133247      42.30133247      42.30133247      41.94433339      41.94433339      41.94433339
          43.73033269      43.73033269      43.73033269      43.37333425      43.37333425      43.37333425      43.01533254      43.01533254      43.01533254      42.65833410      42.65833410      42.65833410      42.30133247      42.30133247      42.30133247      41.94433339      41.94433339      41.94433339
          43.73033269      43.73033269      43.73033269      43.37333425      43.37333425      43.37333425      43.01533254      43.01533254      43.01533254      42.65833410      42.65833410      42.65833410      42.30133247      42.30133247      42.30133247      41.94433339      41.94433339      41.94433339
          43.73033269      43.73033269      43.73033269      43.37333425      43.37333425      43.37333425      43.01533254      43.01533254      43.01533254      42.65833410      42.65833410      42.65833410      42.30133247      42.30133247      42.30133247      41.94433339      41.94433339      41.94433339
          43.73033269      43.73033269      43.73033269      43.37333425      43.37333425      43.37333425      43.01533254      43.01533254      43.01533254      42.65833410      42.65833410      42.65833410      42.30133247      42.30133247      42.30133247      41.94433339      41.94433339      41.94433339
          43.73033269      43.73033269      43.73033269      43.37333425      43.37333425      43.37333425      43.01533254      43.01533254      43.01533254      42.65833410      42.65833410      42.65833410      42.30133247      42.30133247      42.30133247      41.94433339      41.94433339      41.94433339
          43.73033269      43.73033269      43.73033269      43.37333425      43.37333425      43.37333425      43.01533254      43.01533254      43.01533254      42.65833410      42.65833410      42.65833410      42.30133247      42.30133247      42.30133247      41.94433339      41.94433339      41.94433339
          43.73033269      43.73033269      43.73033269      43.37333425      43.37333425      43.37333425      43.01533254      43.01533254      43.01533254      42.65833410      42.65833410      42.65833410      42.30133247      42.30133247      42.30133247      41.94433339      41.94433339      41.94433339
          43.73033269      43.73033269      43.73033269      43.37333425      43.37333425      43.37333425      43.01533254      43.01533254      43.01533254      42.65833410      42.65833410      42.65833410      42.30133247      42.30133247      42.30133247      41.94433339      41.94433339      41.94433339
          43.73033269      43.73033269      43.73033269      43.37333425      43.37333425      43.37333425      43.01533254      43.01533254      43.01533254      42.65833410      42.65833410      42.65833410      42.30133247      42.30133247      42.30133247      41.94433339      41.94433339      41.94433339
          43.73033269      43.73033269      43.73033269      43.37333425      43.37333425      43.37333425      43.01533254      43.01533254      43.01533254      42.65833410      42.65833410      42.65833410      42.30133247      42.30133247      42.30133247      41.94433339      41.94433339      41.94433339
    INTERNAL  FACTOR  1.0
          38.17466609      38.17466609      38.17466609      37.81766764      37.81766764      37.81766764      37.45966593      37.45966593      37.45966593      37.10266749      37.10266749      37.10266749      36.74566650      36.74566650      36.74566650      36.38866679      36.38866679      36.38866679
          38.17466609      38.17466609      38.17466609      37.81766764      37.81766764      37.81766764      37.45966593      37.45966593      37.45966593      37.10266749      37.10266749      37.10266749      36.74566650      36.74566650      36.74566650      36.38866679      36.38866679      36.38866679
          38.17466609      38.17466609      38.17466609      37.81766764      37.81766764      37.81766764      37.45966593      37.45966593      37.45966593      37.10266749      37.10266749      37.10266749      36.74566650      36.74566650      36.74566650      36.38866679      36.38866679      36.38866679
          38.17466609      38.17466609      38.17466609      37.81766764      37.81766764      37.81766764      37.45966593      37.45966593      37.45966593      37.10266749      37.10266749      37.10266749      36.74566650      36.74566650      36.74566650      36.38866679      36.38866679      36.38866679
          38.17466609      38.17466609      38.17466609      37.81766764      37.81766764      37.81766764      37.45966593      37.45966593      37.45966593      37.10266749      37.10266749      37.10266749      36.74566650      36.74566650      36.74566650      36.38866679      36.38866679      36.38866679
          38.17466609      38.17466609      38.17466609      37.81766764      37.81766764      37.81766764      37.45966593      37.45966593      37.45966593      37.10266749      37.10266749      37.10266749      36.74566650      36.74566650      36.74566650      36.38866679      36.38866679      36.38866679
          38.17466609      38.17466609      38.17466609      37.81766764      37.81766764      37.81766764      37.45966593      37.45966593      37.45966593      37.10266749      37.10266749      37.10266749      36.74566650      36.74566650      36.74566650      36.38866679      36.38866679      36.38866679
          38.17466609      38.17466609      38.17466609      37.81766764      37.81766764      37.81766764      37.45966593      37.45966593      37.45966593      37.10266749      37.10266749      37.10266749      36.74566650      36.74566650      36.74566650      36.38866679      36.38866679      36.38866679
          38.17466609      38.17466609      38.17466609      37.81766764      37.81766764      37.81766764      37.45966593      37.45966593      37.45966593      37.10266749      37.10266749      37.10266749      36.74566650      36.74566650      36.74566650      36.38866679      36.38866679      36.38866679
          38.17466609      38.17466609      38.17466609      37.81766764      37.81766764      37.81766764      37.45966593      37.45966593      37.45966593      37.10266749      37.10266749      37.10266749      36.74566650      36.74566650      36.74566650      36.38866679      36.38866679      36.38866679
          38.17466609      38.17466609      38.17466609      37.81766764      37.81766764      37.81766764      37.45966593      37.45966593      37.45966593      37.10266749      37.10266749      37.10266749      36.74566650      36.74566650      36.74566650      36.38866679      36.38866679      36.38866679
          38.17466609      38.17466609      38.17466609      37.81766764      37.81766764      37.81766764      37.45966593      37.45966593      37.45966593      37.10266749      37.10266749      37.10266749      36.74566650      36.74566650      36.74566650      36.38866679      36.38866679      36.38866679
          38.17466609      38.17466609      38.17466609      37.81766764      37.81766764      37.81766764      37.45966593      37.45966593      37.45966593      37.10266749      37.10266749      37.10266749      36.74566650      36.74566650      36.74566650      36.38866679      36.38866679      36.38866679
          38.17466609      38.17466609      38.17466609      37.81766764      37.81766764      37.81766764      37.45966593      37.45966593      37.45966593      37.10266749      37.10266749      37.10266749      36.74566650      36.74566650      36.74566650      36.38866679      36.38866679      36.38866679
          38.17466609      38.17466609      38.17466609      37.81766764      37.81766764      37.81766764      37.45966593      37.45966593      37.45966593      37.10266749      37.10266749      37.10266749      36.74566650      36.74566650      36.74566650      36.38866679      36.38866679      36.38866679
    INTERNAL  FACTOR  1.0
          32.61899948      32.61899948      32.61899948      32.26200104      32.26200104      32.26200104      31.90399933      31.90399933      31.90399933      31.54700089      31.54700089      31.54700089      31.19000053      31.19000053      31.19000053      30.83300018      30.83300018      30.83300018
          32.61899948      32.61899948      32.61899948      32.26200104      32.26200104      32.26200104      31.90399933      31.90399933      31.90399933      31.54700089      31.54700089      31.54700089      31.19000053      31.19000053      31.19000053      30.83300018      30.83300018      30.83300018
          32.61899948      32.61899948      32.61899948      32.26200104      32.26200104      32.26200104      31.90399933      31.90399933      31.90399933      31.54700089      31.54700089      31.54700089      31.19000053      31.19000053      31.19000053      30.83300018      30.83300018      30.83300018
          32.61899948      32.61899948      32.61899948      32.26200104      32.26200104      32.26200104      31.90399933      31.90399933      31.90399933      31.54700089      31.54700089      31.54700089      31.19000053      31.19000053      31.19000053      30.83300018      30.83300018      30.83300018
          32.61899948      32.61899948      32.61899948      32.26200104      32.26200104      32.26200104      31.90399933      31.90399933      31.90399933      31.54700089      31.54700089      31.54700089      31.19000053      31.19000053      31.19000053      30.83300018      30.83300018      30.83300018
          32.61899948      32.61899948      32.61899948      32.26200104      32.26200104      32.26200104      31.90399933      31.90399933      31.90399933      31.54700089      31.54700089      31.54700089      31.19000053      31.19000053      31.19000053      30.83300018      30.83300018      30.83300018
          32.61899948      32.61899948      32.61899948      32.26200104      32.26200104      32.26200104      31.90399933      31.90399933      31.90399933      31.54700089      31.54700089      31.54700089      31.19000053      31.19000053      31.19000053      30.83300018      30.83300018      30.83300018
          32.61899948      32.61899948      32.61899948      32.26200104      32.26200104      32.26200104      31.90399933      31.90399933      31.90399933      31.54700089      31.54700089      31.54700089      31.19000053      31.19000053      31.19000053      30.83300018      30.83300018      30.83300018
          32.61899948      32.61899948      32.61899948      32.26200104      32.26200104      32.26200104      31.90399933      31.90399933      31.90399933      31.54700089      31.54700089      31.54700089      31.19000053      31.19000053      31.19000053      30.83300018      30.83300018      30.83300018
          32.61899948      32.61899948      32.61899948      32.26200104      32.26200104      32.26200104      31.90399933      31.90399933      31.90399933      31.54700089      31.54700089      31.54700089      31.19000053      31.19000053      31.19000053      30.83300018      30.83300018      30.83300018
          32.61899948      32.61899948      32.61899948      32.26200104      32.26200104      32.26200104      31.90399933      31.90399933      31.90399933      31.54700089      31.54700089      31.54700089      31.19000053      31.19000053      31.19000053      30.83300018      30.83300018      30.83300018
          32.61899948      32.61899948      32.61899948      32.26200104      32.26200104      32.26200104      31.90399933      31.90399933      31.90399933      31.54700089      31.54700089      31.54700089      31.19000053      31.19000053      31.19000053      30.83300018      30.83300018      30.83300018
          32.61899948      32.61899948      32.61899948      32.26200104      32.26200104      32.26200104      31.90399933      31.90399933      31.90399933      31.54700089      31.54700089      31.54700089      31.19000053      31.19000053      31.19000053      30.83300018      30.83300018      30.83300018
          32.61899948      32.61899948      32.61899948      32.26200104      32.26200104      32.26200104      31.90399933      31.90399933      31.90399933      31.54700089      31.54700089      31.54700089      31.19000053      31.19000053      31.19000053      30.83300018      30.83300018      30.83300018
          32.61899948      32.61899948      32.61899948      32.26200104      32.26200104      32.26200104      31.90399933      31.90399933      31.90399933      31.54700089      31.54700089      31.54700089      31.19000053      31.19000053      31.19000053      30.83300018      30.83300018      30.83300018
    INTERNAL  FACTOR  1.0
          27.06366603      27.06366603      27.06366603      26.70666758      26.70666758      26.70666758      26.34866587      26.34866587      26.34866587      25.99166743      25.99166743      25.99166743      25.63466708      25.63466708      25.63466708      25.27766673      25.27766673      25.27766673
          27.06366603      27.06366603      27.06366603      26.70666758      26.70666758      26.70666758      26.34866587      26.34866587      26.34866587      25.99166743      25.99166743      25.99166743      25.63466708      25.63466708      25.63466708      25.27766673      25.27766673      25.27766673
          27.06366603      27.06366603      27.06366603      26.70666758      26.70666758      26.70666758      26.34866587      26.34866587      26.34866587      25.99166743      25.99166743      25.99166743      25.63466708      25.63466708      25.63466708      25.27766673      25.27766673      25.27766673
          27.06366603      27.06366603      27.06366603      26.70666758      26.70666758      26.70666758      26.34866587      26.34866587      26.34866587      25.99166743      25.99166743      25.99166743      25.63466708      25.63466708      25.63466708      25.27766673      25.27766673      25.27766673
          27.06366603      27.06366603      27.06366603      26.70666758      26.70666758      26.70666758      26.34866587      26.34866587      26.34866587      25.99166743      25.99166743      25.99166743      25.63466708      25.63466708      25.63466708      25.27766673      25.27766673      25.27766673
          27.06366603      27.06366603      27.06366603      26.70666758      26.70666758      26.70666758      26.34866587      26.34866587      26.34866587      25.99166743      25.99166743      25.99166743      25.63466708      25.63466708      25.63466708      25.27766673      25.27766673      25.27766673
          27.06366603      27.06366603      27.06366603      26.70666758      26.70666758      26.70666758      26.34866587      26.34866587      26.34866587      25.99166743      25.99166743      25.99166743      25.63466708      25.63466708      25.63466708      25.27766673      25.27766673      25.27766673
          27.06366603      27.06366603      27.06366603      26.70666758      26.70666758      26.70666758      26.34866587      26.34866587      26.34866587      25.99166743      25.99166743      25.99166743      25.63466708      25.63466708      25.63466708      25.27766673      25.27766673      25.27766673
          27.06366603      27.06366603      27.06366603      26.70666758      26.70666758      26.70666758      26.34866587      26.34866587      26.34866587      25.99166743      25.99166743      25.99166743      25.63466708      25.63466708      25.63466708      25.27766673      25.27766673      25.27766673
          27.06366603      27.06366603      27.06366603      26.70666758      26.70666758      26.70666758      26.34866587      26.34866587      26.34866587      25.99166743      25.99166743      25.99166743      25.63466708      25.63466708      25.63466708      25.27766673      25.27766673      25.27766673
          27.06366603      27.06366603      27.06366603      26.70666758      26.70666758      26.70666758      26.34866587      26.34866587      26.34866587      25.99166743      25.99166743      25.99166743      25.63466708      25.63466708      25.63466708      25.27766673      25.27766673      25.27766673
          27.06366603      27.06366603      27.06366603      26.70666758      26.70666758      26.70666758      26.34866587      26.34866587      26.34866587      25.99166743      25.99166743      25.99166743      25.63466708      25.63466708      25.63466708      25.27766673      25.27766673      25.27766673
          27.06366603      27.06366603      27.06366603      26.70666758      26.70666758      26.70666758      26.34866587      26.34866587      26.34866587      25.99166743      25.99166743      25.99166743      25.63466708      25.63466708      25.63466708      25.27766673      25.27766673      25.27766673
          27.06366603      27.06366603      27.06366603      26.70666758      26.70666758      26.70666758      26.34866587      26.34866587      26.34866587      25.99166743      25.99166743      25.99166743      25.63466708      25.63466708      25.63466708      25.27766673      25.27766673      25.27766673
          27.06366603      27.06366603      27.06366603      26.70666758      26.70666758      26.70666758      26.34866587      26.34866587      26.34866587      25.99166743      25.99166743      25.99166743      25.63466708      25.63466708      25.63466708      25.27766673      25.27766673      25.27766673
    INTERNAL  FACTOR  1.0
          21.50833257      21.50833257      21.50833257      21.15133413      21.15133413      21.15133413      20.79333242      20.79333242      20.79333242      20.43633397      20.43633397      20.43633397      20.07933362      20.07933362      20.07933362      19.72233327      19.72233327      19.72233327
          21.50833257      21.50833257      21.50833257      21.15133413      21.15133413      21.15133413      20.79333242      20.79333242      20.79333242      20.43633397      20.43633397      20.43633397      20.07933362      20.07933362      20.07933362      19.72233327      19.72233327      19.72233327
          21.50833257      21.50833257      21.50833257      21.15133413      21.15133413      21.15133413      20.79333242      20.79333242      20.79333242      20.43633397      20.43633397      20.43633397      20.07933362      20.07933362      20.07933362      19.72233327      19.72233327      19.72233327
          21.50833257      21.50833257      21.50833257      21.15133413      21.15133413      21.15133413      20.79333242      20.79333242      20.79333242      20.43633397      20.43633397      20.43633397      20.07933362      20.07933362      20.07933362      19.72233327      19.72233327      19.72233327
          21.50833257      21.50833257      21.50833257      21.15133413      21.15133413      21.15133413      20.79333242      20.79333242      20.79333242      20.43633397      20.43633397      20.43633397      20.07933362      20.07933362      20.07933362      19.72233327      19.72233327      19.72233327
          21.50833257      21.50833257      21.50833257      21.15133413      21.15133413      21.15133413      20.79333242      20.79333242      20.79333242      20.43633397      20.43633397      20.43633397      20.07933362      20.07933362      20.07933362      19.72233327      19.72233327      19.72233327
          21.50833257      21.50833257      21.50833257      21.15133413      21.15133413      21.15133413      20.79333242      20.79333242      20.79333242      20.43633397      20.43633397      20.43633397      20.07933362      20.07933362      20.07933362      19.72233327      19.72233327      19.72233327
          21.50833257      21.50833257      21.50833257      21.15133413      21.15133413      21.15133413      20.79333242      20.79333242      20.79333242      20.43633397      20.43633397      20.43633397      20.07933362      20.07933362      20.07933362      19.72233327      19.72233327      19.72233327
          21.50833257      21.50833257      21.50833257      21.15133413      21.15133413      21.15133413      20.79333242      20.79333242      20.79333242      20.43633397      20.43633397      20.43633397      20.07933362      20.07933362      20.07933362      19.72233327      19.72233327      19.72233327
          21.50833257      21.50833257      21.50833257      21.15133413      21.15133413      21.15133413      20.79333242      20.79333242      20.79333242      20.43633397      20.43633397      20.43633397      20.07933362      20.07933362      20.07933362      19.72233327      19.72233327      19.72233327
          21.50833257      21.50833257      21.50833257      21.15133413      21.15133413      21.15133413      20.79333242      20.79333242      20.79333242      20.43633397      20.43633397      20.43633397      20.07933362      20.07933362      20.07933362      19.72233327      19.72233327      19.72233327
          21.50833257      21.50833257      21.50833257      21.15133413      21.15133413      21.15133413      20.79333242      20.79333242      20.79333242      20.43633397      20.43633397      20.43633397      20.07933362      20.07933362      20.07933362      19.72233327      19.72233327      19.72233327
          21.50833257      21.50833257      21.50833257      21.15133413      21.15133413      21.15133413      20.79333242      20.79333242      20.79333242      20.43633397      20.43633397      20.43633397      20.07933362      20.07933362      20.07933362      19.72233327      19.72233327      19.72233327
          21.50833257      21.50833257      21.50833257      21.15133413      21.15133413      21.15133413      20.79333242      20.79333242      20.79333242      20.43633397      20.43633397      20.43633397      20.07933362      20.07933362      20.07933362      19.72233327      19.72233327      19.72233327
          21.50833257      21.50833257      21.50833257      21.15133413      21.15133413      21.15133413      20.79333242      20.79333242      20.79333242      20.43633397      20.43633397      20.43633397      20.07933362      20.07933362      20.07933362      19.72233327      19.72233327      19.72233327
    INTERNAL  FACTOR  1.0
          15.95299911      15.95299911      15.95299911      15.59600067      15.59600067      15.59600067      15.23799896      15.23799896      15.23799896      14.88100052      14.88100052      14.88100052      14.52400017      14.52400017      14.52400017      14.16699982      14.16699982      14.16699982
          15.95299911      15.95299911      15.95299911      15.59600067      15.59600067      15.59600067      15.23799896      15.23799896      15.23799896      14.88100052      14.88100052      14.88100052      14.52400017      14.52400017      14.52400017      14.16699982      14.16699982      14.16699982
          15.95299911      15.95299911      15.95299911      15.59600067      15.59600067      15.59600067      15.23799896      15.23799896      15.23799896      14.88100052      14.88100052      14.88100052      14.52400017      14.52400017      14.52400017      14.16699982      14.16699982      14.16699982