# File generated by Flopy version 3.3.5 on 03/04/2022 at 11:14:13.
BEGIN options
  PRINT_FLOWS
  MODELNAMES
END options

BEGIN dimensions
  MAXMVR  2
  MAXPACKAGES  2
END dimensions

BEGIN packages
  gwf-lgr-parent  SFR-parent
  gwf-lgr-child  SFR-child
END packages

BEGIN period  1
  gwf-lgr-parent  SFR-parent  8  gwf-lgr-child  SFR-child  1  FACTOR       1.00000000
  gwf-lgr-child  SFR-child  89  gwf-lgr-parent  SFR-parent  9  FACTOR       1.00000000
END period  1

