# File generated by Flopy version 3.3.5 on 03/04/2022 at 11:17:55.
BEGIN options
  GWFMODELNAME1  gwf-outer
  GWFMODELNAME2  gwf-inner
  auxiliary  ANGLDEGX  CDIST
  ADVSCHEME  upstream
END options

BEGIN dimensions
  NEXG  584
END dimensions

BEGIN exchangedata
  1 9 6  1 1 1  1      50.00000000      25.00000000      50.00000000       0.00000000      75.00000000
  1 10 6  1 2 1  1      50.00000000      25.00000000      50.00000000       0.00000000      75.00000000
  1 11 6  1 3 1  1      50.00000000      25.00000000      50.00000000       0.00000000      75.00000000
  1 12 6  1 4 1  1      50.00000000      25.00000000      50.00000000       0.00000000      75.00000000
  1 13 6  1 5 1  1      50.00000000      25.00000000      50.00000000       0.00000000      75.00000000
  1 14 6  1 6 1  1      50.00000000      25.00000000      50.00000000       0.00000000      75.00000000
  1 15 6  1 7 1  1      50.00000000      25.00000000      50.00000000       0.00000000      75.00000000
  1 16 6  1 8 1  1      50.00000000      25.00000000      50.00000000       0.00000000      75.00000000
  1 17 6  1 9 1  1      50.00000000      25.00000000      50.00000000       0.00000000      75.00000000
  1 18 6  1 10 1  1      50.00000000      25.00000000      50.00000000       0.00000000      75.00000000
  1 19 6  1 11 1  1      50.00000000      25.00000000      50.00000000       0.00000000      75.00000000
  1 20 6  1 12 1  1      50.00000000      25.00000000      50.00000000       0.00000000      75.00000000
  1 21 6  1 13 1  1      50.00000000      25.00000000      50.00000000       0.00000000      75.00000000
  1 22 6  1 14 1  1      50.00000000      25.00000000      50.00000000       0.00000000      75.00000000
  1 23 6  1 15 1  1      50.00000000      25.00000000      50.00000000       0.00000000      75.00000000
  1 24 6  1 16 1  1      50.00000000      25.00000000      50.00000000       0.00000000      75.00000000
  1 25 6  1 17 1  1      50.00000000      25.00000000      50.00000000       0.00000000      75.00000000
  1 26 6  1 18 1  1      50.00000000      25.00000000      50.00000000       0.00000000      75.00000000
  1 27 6  1 19 1  1      50.00000000      25.00000000      50.00000000       0.00000000      75.00000000
  1 28 6  1 20 1  1      50.00000000      25.00000000      50.00000000       0.00000000      75.00000000
  1 29 6  1 21 1  1      50.00000000      25.00000000      50.00000000       0.00000000      75.00000000
  1 30 6  1 22 1  1      50.00000000      25.00000000      50.00000000       0.00000000      75.00000000
  1 31 6  1 23 1  1      50.00000000      25.00000000      50.00000000       0.00000000      75.00000000
  1 32 6  1 24 1  1      50.00000000      25.00000000      50.00000000       0.00000000      75.00000000
  1 33 6  1 25 1  1      50.00000000      25.00000000      50.00000000       0.00000000      75.00000000
  1 34 6  1 26 1  1      50.00000000      25.00000000      50.00000000       0.00000000      75.00000000
  1 35 6  1 27 1  1      50.00000000      25.00000000      50.00000000       0.00000000      75.00000000
  1 36 6  1 28 1  1      50.00000000      25.00000000      50.00000000       0.00000000      75.00000000
  1 37 6  1 29 1  1      50.00000000      25.00000000      50.00000000       0.00000000      75.00000000
  1 38 6  1 30 1  1      50.00000000      25.00000000      50.00000000       0.00000000      75.00000000
  1 39 6  1 31 1  1      50.00000000      25.00000000      50.00000000       0.00000000      75.00000000
  1 40 6  1 32 1  1      50.00000000      25.00000000      50.00000000       0.00000000      75.00000000
  1 41 6  1 33 1  1      50.00000000      25.00000000      50.00000000       0.00000000      75.00000000
  1 42 6  1 34 1  1      50.00000000      25.00000000      50.00000000       0.00000000      75.00000000
  1 43 6  1 35 1  1      50.00000000      25.00000000      50.00000000       0.00000000      75.00000000
  1 44 6  1 36 1  1      50.00000000      25.00000000      50.00000000       0.00000000      75.00000000
  1 45 6  1 37 1  1      50.00000000      25.00000000      50.00000000       0.00000000      75.00000000
  1 46 6  1 38 1  1      50.00000000      25.00000000      50.00000000       0.00000000      75.00000000
  1 47 6  1 39 1  1      50.00000000      25.00000000      50.00000000       0.00000000      75.00000000
  1 48 6  1 40 1  1      50.00000000      25.00000000      50.00000000       0.00000000      75.00000000
  1 49 6  1 41 1  1      50.00000000      25.00000000      50.00000000       0.00000000      75.00000000
  1 50 6  1 42 1  1      50.00000000      25.00000000      50.00000000       0.00000000      75.00000000
  1 51 6  1 43 1  1      50.00000000      25.00000000      50.00000000       0.00000000      75.00000000
  1 52 6  1 44 1  1      50.00000000      25.00000000      50.00000000       0.00000000      75.00000000
  1 53 6  1 45 1  1      50.00000000      25.00000000      50.00000000       0.00000000      75.00000000
  2 9 6  2 1 1  1      50.00000000      25.00000000      50.00000000       0.00000000      75.00000000
  2 10 6  2 2 1  1      50.00000000      25.00000000      50.00000000       0.00000000      75.00000000
  2 11 6  2 3 1  1      50.00000000      25.00000000      50.00000000       0.00000000      75.00000000
  2 12 6  2 4 1  1      50.00000000      25.00000000      50.00000000       0.00000000      75.00000000
  2 13 6  2 5 1  1      50.00000000      25.00000000      50.00000000       0.00000000      75.00000000
  2 14 6  2 6 1  1      50.00000000      25.00000000      50.00000000       0.00000000      75.00000000
  2 15 6  2 7 1  1      50.00000000      25.00000000      50.00000000       0.00000000      75.00000000
  2 16 6  2 8 1  1      50.00000000      25.00000000      50.00000000       0.00000000      75.00000000
  2 17 6  2 9 1  1      50.00000000      25.00000000      50.00000000       0.00000000      75.00000000
  2 18 6  2 10 1  1      50.00000000      25.00000000      50.00000000       0.00000000      75.00000000
  2 19 6  2 11 1  1      50.00000000      25.00000000      50.00000000       0.00000000      75.00000000
  2 20 6  2 12 1  1      50.00000000      25.00000000      50.00000000       0.00000000      75.00000000
  2 21 6  2 13 1  1      50.00000000      25.00000000      50.00000000       0.00000000      75.00000000
  2 22 6  2 14 1  1      50.00000000      25.00000000      50.00000000       0.00000000      75.00000000
  2 23 6  2 15 1  1      50.00000000      25.00000000      50.00000000       0.00000000      75.00000000
  2 24 6  2 16 1  1      50.00000000      25.00000000      50.00000000       0.00000000      75.00000000
  2 25 6  2 17 1  1      50.00000000      25.00000000      50.00000000       0.00000000      75.00000000
  2 26 6  2 18 1  1      50.00000000      25.00000000      50.00000000       0.00000000      75.00000000
  2 27 6  2 19 1  1      50.00000000      25.00000000      50.00000000       0.00000000      75.00000000
  2 28 6  2 20 1  1      50.00000000      25.00000000      50.00000000       0.00000000      75.00000000
  2 29 6  2 21 1  1      50.00000000      25.00000000      50.00000000       0.00000000      75.00000000
  2 30 6  2 22 1  1      50.00000000      25.00000000      50.00000000       0.00000000      75.00000000
  2 31 6  2 23 1  1      50.00000000      25.00000000      50.00000000       0.00000000      75.00000000
  2 32 6  2 24 1  1      50.00000000      25.00000000      50.00000000       0.00000000      75.00000000
  2 33 6  2 25 1  1      50.00000000      25.00000000      50.00000000       0.00000000      75.00000000
  2 34 6  2 26 1  1      50.00000000      25.00000000      50.00000000       0.00000000      75.00000000
  2 35 6  2 27 1  1      50.00000000      25.00000000      50.00000000       0.00000000      75.00000000
  2 36 6  2 28 1  1      50.00000000      25.00000000      50.00000000       0.00000000      75.00000000
  2 37 6  2 29 1  1      50.00000000      25.00000000      50.00000000       0.00000000      75.00000000
  2 38 6  2 30 1  1      50.00000000      25.00000000      50.00000000       0.00000000      75.00000000
  2 39 6  2 31 1  1      50.00000000      25.00000000      50.00000000       0.00000000      75.00000000
  2 40 6  2 32 1  1      50.00000000      25.00000000      50.00000000       0.00000000      75.00000000
  2 41 6  2 33 1  1      50.00000000      25.00000000      50.00000000       0.00000000      75.00000000
  2 42 6  2 34 1  1      50.00000000      25.00000000      50.00000000       0.00000000      75.00000000
  2 43 6  2 35 1  1      50.00000000      25.00000000      50.00000000       0.00000000      75.00000000
  2 44 6  2 36 1  1      50.00000000      25.00000000      50.00000000       0.00000000      75.00000000
  2 45 6  2 37 1  1      50.00000000      25.00000000      50.00000000       0.00000000      75.00000000
  2 46 6  2 38 1  1      50.00000000      25.00000000      50.00000000       0.00000000      75.00000000
  2 47 6  2 39 1  1      50.00000000      25.00000000      50.00000000       0.00000000      75.00000000
  2 48 6  2 40 1  1      50.00000000      25.00000000      50.00000000       0.00000000      75.00000000
  2 49 6  2 41 1  1      50.00000000      25.00000000      50.00000000       0.00000000      75.00000000
  2 50 6  2 42 1  1      50.00000000      25.00000000      50.00000000       0.00000000      75.00000000
  2 51 6  2 43 1  1      50.00000000      25.00000000      50.00000000       0.00000000      75.00000000
  2 52 6  2 44 1  1      50.00000000      25.00000000      50.00000000       0.00000000      75.00000000
  2 53 6  2 45 1  1      50.00000000      25.00000000      50.00000000       0.00000000      75.00000000
  3 9 6  3 1 1  1      50.00000000      25.00000000      50.00000000       0.00000000      75.00000000
  3 10 6  3 2 1  1      50.00000000      25.00000000      50.00000000       0.00000000      75.00000000
  3 11 6  3 3 1  1      50.00000000      25.00000000      50.00000000       0.00000000      75.00000000
  3 12 6  3 4 1  1      50.00000000      25.00000000      50.00000000       0.00000000      75.00000000
  3 13 6  3 5 1  1      50.00000000      25.00000000      50.00000000       0.00000000      75.00000000
  3 14 6  3 6 1  1      50.00000000      25.00000000      50.00000000       0.00000000      75.00000000
  3 15 6  3 7 1  1      50.00000000      25.00000000      50.00000000       0.00000000      75.00000000
  3 16 6  3 8 1  1      50.00000000      25.00000000      50.00000000       0.00000000      75.00000000
  3 17 6  3 9 1  1      50.00000000      25.00000000      50.00000000       0.00000000      75.00000000
  3 18 6  3 10 1  1      50.00000000      25.00000000      50.00000000       0.00000000      75.00000000
  3 19 6  3 11 1  1      50.00000000      25.00000000      50.00000000       0.00000000      75.00000000
  3 20 6  3 12 1  1      50.00000000      25.00000000      50.00000000       0.00000000      75.00000000
  3 21 6  3 13 1  1      50.00000000      25.00000000      50.00000000       0.00000000      75.00000000
  3 22 6  3 14 1  1      50.00000000      25.00000000      50.00000000       0.00000000      75.00000000
  3 23 6  3 15 1  1      50.00000000      25.00000000      50.00000000       0.00000000      75.00000000
  3 24 6  3 16 1  1      50.00000000      25.00000000      50.00000000       0.00000000      75.00000000
  3 25 6  3 17 1  1      50.00000000      25.00000000      50.00000000       0.00000000      75.00000000
  3 26 6  3 18 1  1      50.00000000      25.00000000      50.00000000       0.00000000      75.00000000
  3 27 6  3 19 1  1      50.00000000      25.00000000      50.00000000       0.00000000      75.00000000
  3 28 6  3 20 1  1      50.00000000      25.00000000      50.00000000       0.00000000      75.00000000
  3 29 6  3 21 1  1      50.00000000      25.00000000      50.00000000       0.00000000      75.00000000
  3 30 6  3 22 1  1      50.00000000      25.00000000      50.00000000       0.00000000      75.00000000
  3 31 6  3 23 1  1      50.00000000      25.00000000      50.00000000       0.00000000      75.00000000
  3 32 6  3 24 1  1      50.00000000      25.00000000      50.00000000       0.00000000      75.00000000
  3 33 6  3 25 1  1      50.00000000      25.00000000      50.00000000       0.00000000      75.00000000
  3 34 6  3 26 1  1      50.00000000      25.00000000      50.00000000       0.00000000      75.00000000
  3 35 6  3 27 1  1      50.00000000      25.00000000      50.00000000       0.00000000      75.00000000
  3 36 6  3 28 1  1      50.00000000      25.00000000      50.00000000       0.00000000      75.00000000
  3 37 6  3 29 1  1      50.00000000      25.00000000      50.00000000       0.00000000      75.00000000
  3 38 6  3 30 1  1      50.00000000      25.00000000      50.00000000       0.00000000      75.00000000
  3 39 6  3 31 1  1      50.00000000      25.00000000      50.00000000       0.00000000      75.00000000
  3 40 6  3 32 1  1      50.00000000      25.00000000      50.00000000       0.00000000      75.00000000
  3 41 6  3 33 1  1      50.00000000      25.00000000      50.00000000       0.00000000      75.00000000
  3 42 6  3 34 1  1      50.00000000      25.00000000      50.00000000       0.00000000      75.00000000
  3 43 6  3 35 1  1      50.00000000      25.00000000      50.00000000       0.00000000      75.00000000
  3 44 6  3 36 1  1      50.00000000      25.00000000      50.00000000       0.00000000      75.00000000
  3 45 6  3 37 1  1      50.00000000      25.00000000      50.00000000       0.00000000      75.00000000
  3 46 6  3 38 1  1      50.00000000      25.00000000      50.00000000       0.00000000      75.00000000
  3 47 6  3 39 1  1      50.00000000      25.00000000      50.00000000       0.00000000      75.00000000
  3 48 6  3 40 1  1      50.00000000      25.00000000      50.00000000       0.00000000      75.00000000
  3 49 6  3 41 1  1      50.00000000      25.00000000      50.00000000       0.00000000      75.00000000
  3 50 6  3 42 1  1      50.00000000      25.00000000      50.00000000       0.00000000      75.00000000
  3 51 6  3 43 1  1      50.00000000      25.00000000      50.00000000       0.00000000      75.00000000
  3 52 6  3 44 1  1      50.00000000      25.00000000      50.00000000       0.00000000      75.00000000
  3 53 6  3 45 1  1      50.00000000      25.00000000      50.00000000       0.00000000      75.00000000
  4 9 6  4 1 1  1      50.00000000      25.00000000      50.00000000       0.00000000      75.00000000
  4 10 6  4 2 1  1      50.00000000      25.00000000      50.00000000       0.00000000      75.00000000
  4 11 6  4 3 1  1      50.00000000      25.00000000      50.00000000       0.00000000      75.00000000
  4 12 6  4 4 1  1      50.00000000      25.00000000      50.00000000       0.00000000      75.00000000
  4 13 6  4 5 1  1      50.00000000      25.00000000      50.00000000       0.00000000      75.00000000
  4 14 6  4 6 1  1      50.00000000      25.00000000      50.00000000       0.00000000      75.00000000
  4 15 6  4 7 1  1      50.00000000      25.00000000      50.00000000       0.00000000      75.00000000
  4 16 6  4 8 1  1      50.00000000      25.00000000      50.00000000       0.00000000      75.00000000
  4 17 6  4 9 1  1      50.00000000      25.00000000      50.00000000       0.00000000      75.00000000
  4 18 6  4 10 1  1      50.00000000      25.00000000      50.00000000       0.00000000      75.00000000
  4 19 6  4 11 1  1      50.00000000      25.00000000      50.00000000       0.00000000      75.00000000
  4 20 6  4 12 1  1      50.00000000      25.00000000      50.00000000       0.00000000      75.00000000
  4 21 6  4 13 1  1      50.00000000      25.00000000      50.00000000       0.00000000      75.00000000
  4 22 6  4 14 1  1      50.00000000      25.00000000      50.00000000       0.00000000      75.00000000
  4 23 6  4 15 1  1      50.00000000      25.00000000      50.00000000       0.00000000      75.00000000
  4 24 6  4 16 1  1      50.00000000      25.00000000      50.00000000       0.00000000      75.00000000
  4 25 6  4 17 1  1      50.00000000      25.00000000      50.00000000       0.00000000      75.00000000
  4 26 6  4 18 1  1      50.00000000      25.00000000      50.00000000       0.00000000      75.00000000
  4 27 6  4 19 1  1      50.00000000      25.00000000      50.00000000       0.00000000      75.00000000
  4 28 6  4 20 1  1      50.00000000      25.00000000      50.00000000       0.00000000      75.00000000
  4 29 6  4 21 1  1      50.00000000      25.00000000      50.00000000       0.00000000      75.00000000
  4 30 6  4 22 1  1      50.00000000      25.00000000      50.00000000       0.00000000      75.00000000
  4 31 6  4 23 1  1      50.00000000      25.00000000      50.00000000       0.00000000      75.00000000
  4 32 6  4 24 1  1      50.00000000      25.00000000      50.00000000       0.00000000      75.00000000
  4 33 6  4 25 1  1      50.00000000      25.00000000      50.00000000       0.00000000      75.00000000
  4 34 6  4 26 1  1      50.00000000      25.00000000      50.00000000       0.00000000      75.00000000
  4 35 6  4 27 1  1      50.00000000      25.00000000      50.00000000       0.00000000      75.00000000
  4 36 6  4 28 1  1      50.00000000      25.00000000      50.00000000       0.00000000      75.00000000
  4 37 6  4 29 1  1      50.00000000      25.00000000      50.00000000       0.00000000      75.00000000
  4 38 6  4 30 1  1      50.00000000      25.00000000      50.00000000       0.00000000      75.00000000
  4 39 6  4 31 1  1      50.00000000      25.00000000      50.00000000       0.00000000      75.00000000
  4 40 6  4 32 1  1      50.00000000      25.00000000      50.00000000       0.00000000      75.00000000
  4 41 6  4 33 1  1      50.00000000      25.00000000      50.00000000       0.00000000      75.00000000
  4 42 6  4 34 1  1      50.00000000      25.00000000      50.00000000       0.00000000      75.00000000
  4 43 6  4 35 1  1      50.00000000      25.00000000      50.00000000       0.00000000      75.00000000
  4 44 6  4 36 1  1      50.00000000      25.00000000      50.00000000       0.00000000      75.00000000
  4 45 6  4 37 1  1      50.00000000      25.00000000      50.00000000       0.00000000      75.00000000
  4 46 6  4 38 1  1      50.00000000      25.00000000      50.00000000       0.00000000      75.00000000
  4 47 6  4 39 1  1      50.00000000      25.00000000      50.00000000       0.00000000      75.00000000
  4 48 6  4 40 1  1      50.00000000      25.00000000      50.00000000       0.00000000      75.00000000
  4 49 6  4 41 1  1      50.00000000      25.00000000      50.00000000       0.00000000      75.00000000
  4 50 6  4 42 1  1      50.00000000      25.00000000      50.00000000       0.00000000      75.00000000
  4 51 6  4 43 1  1      50.00000000      25.00000000      50.00000000       0.00000000      75.00000000
  4 52 6  4 44 1  1      50.00000000      25.00000000      50.00000000       0.00000000      75.00000000
  4 53 6  4 45 1  1      50.00000000      25.00000000      50.00000000       0.00000000      75.00000000
  1 9 35  1 1 28  1      50.00000000      25.00000000      50.00000000     180.00000000      75.00000000
  1 10 35  1 2 28  1      50.00000000      25.00000000      50.00000000     180.00000000      75.00000000
  1 11 35  1 3 28  1      50.00000000      25.00000000      50.00000000     180.00000000      75.00000000
  1 12 35  1 4 28  1      50.00000000      25.00000000      50.00000000     180.00000000      75.00000000
  1 13 35  1 5 28  1      50.00000000      25.00000000      50.00000000     180.00000000      75.00000000
  1 14 35  1 6 28  1      50.00000000      25.00000000      50.00000000     180.00000000      75.00000000
  1 15 35  1 7 28  1      50.00000000      25.00000000      50.00000000     180.00000000      75.00000000
  1 16 35  1 8 28  1      50.00000000      25.00000000      50.00000000     180.00000000      75.00000000
  1 17 35  1 9 28  1      50.00000000      25.00000000      50.00000000     180.00000000      75.00000000
  1 18 35  1 10 28  1      50.00000000      25.00000000      50.00000000     180.00000000      75.00000000
  1 19 35  1 11 28  1      50.00000000      25.00000000      50.00000000     180.00000000      75.00000000
  1 20 35  1 12 28  1      50.00000000      25.00000000      50.00000000     180.00000000      75.00000000
  1 21 35  1 13 28  1      50.00000000      25.00000000      50.00000000     180.00000000      75.00000000
  1 22 35  1 14 28  1      50.00000000      25.00000000      50.00000000     180.00000000      75.00000000
  1 23 35  1 15 28  1      50.00000000      25.00000000      50.00000000     180.00000000      75.00000000
  1 24 35  1 16 28  1      50.00000000      25.00000000      50.00000000     180.00000000      75.00000000
  1 25 35  1 17 28  1      50.00000000      25.00000000      50.00000000     180.00000000      75.00000000
  1 26 35  1 18 28  1      50.00000000      25.00000000      50.00000000     180.00000000      75.00000000
  1 27 35  1 19 28  1      50.00000000      25.00000000      50.00000000     180.00000000      75.00000000
  1 28 35  1 20 28  1      50.00000000      25.00000000      50.00000000     180.00000000      75.00000000
  1 29 35  1 21 28  1      50.00000000      25.00000000      50.00000000     180.00000000      75.00000000
  1 30 35  1 22 28  1      50.00000000      25.00000000      50.00000000     180.00000000      75.00000000
  1 31 35  1 23 28  1      50.00000000      25.00000000      50.00000000     180.00000000      75.00000000
  1 32 35  1 24 28  1      50.00000000      25.00000000      50.00000000     180.00000000      75.00000000
  1 33 35  1 25 28  1      50.00000000      25.00000000      50.00000000     180.00000000      75.00000000
  1 34 35  1 26 28  1      50.00000000      25.00000000      50.00000000     180.00000000      75.00000000
  1 35 35  1 27 28  1      50.00000000      25.00000000      50.00000000     180.00000000      75.00000000
  1 36 35  1 28 28  1      50.00000000      25.00000000      50.00000000     180.00000000      75.00000000
  1 37 35  1 29 28  1      50.00000000      25.00000000      50.00000000     180.00000000      75.00000000
  1 38 35  1 30 28  1      50.00000000      25.00000000      50.00000000     180.00000000      75.00000000
  1 39 35  1 31 28  1      50.00000000      25.00000000      50.00000000     180.00000000      75.00000000
  1 40 35  1 32 28  1      50.00000000      25.00000000      50.00000000     180.00000000      75.00000000
  1 41 35  1 33 28  1      50.00000000      25.00000000      50.00000000     180.00000000      75.00000000
  1 42 35  1 34 28  1      50.00000000      25.00000000      50.00000000     180.00000000      75.00000000
  1 43 35  1 35 28  1      50.00000000      25.00000000      50.00000000     180.00000000      75.00000000
  1 44 35  1 36 28  1      50.00000000      25.00000000      50.00000000     180.00000000      75.00000000
  1 45 35  1 37 28  1      50.00000000      25.00000000      50.00000000     180.00000000      75.00000000
  1 46 35  1 38 28  1      50.00000000      25.00000000      50.00000000     180.00000000      75.00000000
  1 47 35  1 39 28  1      50.00000000      25.00000000      50.00000000     180.00000000      75.00000000
  1 48 35  1 40 28  1      50.00000000      25.00000000      50.00000000     180.00000000      75.00000000
  1 49 35  1 41 28  1      50.00000000      25.00000000      50.00000000     180.00000000      75.00000000
  1 50 35  1 42 28  1      50.00000000      25.00000000      50.00000000     180.00000000      75.00000000
  1 51 35  1 43 28  1      50.00000000      25.00000000      50.00000000     180.00000000      75.00000000
  1 52 35  1 44 28  1      50.00000000      25.00000000      50.00000000     180.00000000      75.00000000
  1 53 35  1 45 28  1      50.00000000      25.00000000      50.00000000     180.00000000      75.00000000
  2 9 35  2 1 28  1      50.00000000      25.00000000      50.00000000     180.00000000      75.00000000
  2 10 35  2 2 28  1      50.00000000      25.00000000      50.00000000     180.00000000      75.00000000
  2 11 35  2 3 28  1      50.00000000      25.00000000      50.00000000     180.00000000      75.00000000
  2 12 35  2 4 28  1      50.00000000      25.00000000      50.00000000     180.00000000      75.00000000
  2 13 35  2 5 28  1      50.00000000      25.00000000      50.00000000     180.00000000      75.00000000
  2 14 35  2 6 28  1      50.00000000      25.00000000      50.00000000     180.00000000      75.00000000
  2 15 35  2 7 28  1      50.00000000      25.00000000      50.00000000     180.00000000      75.00000000
  2 16 35  2 8 28  1      50.00000000      25.00000000      50.00000000     180.00000000      75.00000000
  2 17 35  2 9 28  1      50.00000000      25.00000000      50.00000000     180.00000000      75.00000000
  2 18 35  2 10 28  1      50.00000000      25.00000000      50.00000000     180.00000000      75.00000000
  2 19 35  2 11 28  1      50.00000000      25.00000000      50.00000000     180.00000000      75.00000000
  2 20 35  2 12 28  1      50.00000000      25.00000000      50.00000000     180.00000000      75.00000000
  2 21 35  2 13 28  1      50.00000000      25.00000000      50.00000000     180.00000000      75.00000000
  2 22 35  2 14 28  1      50.00000000      25.00000000      50.00000000     180.00000000      75.00000000
  2 23 35  2 15 28  1      50.00000000      25.00000000      50.00000000     180.00000000      75.00000000
  2 24 35  2 16 28  1      50.00000000      25.00000000      50.00000000     180.00000000      75.00000000
  2 25 35  2 17 28  1      50.00000000      25.00000000      50.00000000     180.00000000      75.00000000
  2 26 35  2 18 28  1      50.00000000      25.00000000      50.00000000     180.00000000      75.00000000
  2 27 35  2 19 28  1      50.00000000      25.00000000      50.00000000     180.00000000      75.00000000
  2 28 35  2 20 28  1      50.00000000      25.00000000      50.00000000     180.00000000      75.00000000
  2 29 35  2 21 28  1      50.00000000      25.00000000      50.00000000     180.00000000      75.00000000
  2 30 35  2 22 28  1      50.00000000      25.00000000      50.00000000     180.00000000      75.00000000
  2 31 35  2 23 28  1      50.00000000      25.00000000      50.00000000     180.00000000      75.00000000
  2 32 35  2 24 28  1      50.00000000      25.00000000      50.00000000     180.00000000      75.00000000
  2 33 35  2 25 28  1      50.00000000      25.00000000      50.00000000     180.00000000      75.00000000
  2 34 35  2 26 28  1      50.00000000      25.00000000      50.00000000     180.00000000      75.00000000
  2 35 35  2 27 28  1      50.00000000      25.00000000      50.00000000     180.00000000      75.00000000
  2 36 35  2 28 28  1      50.00000000      25.00000000      50.00000000     180.00000000      75.00000000
  2 37 35  2 29 28  1      50.00000000      25.00000000      50.00000000     180.00000000      75.00000000
  2 38 35  2 30 28  1      50.00000000      25.00000000      50.00000000     180.00000000      75.00000000
  2 39 35  2 31 28  1      50.00000000      25.00000000      50.00000000     180.00000000      75.00000000
  2 40 35  2 32 28  1      50.00000000      25.00000000      50.00000000     180.00000000      75.00000000
  2 41 35  2 33 28  1      50.00000000      25.00000000      50.00000000     180.00000000      75.00000000
  2 42 35  2 34 28  1      50.00000000      25.00000000      50.00000000     180.00000000      75.00000000
  2 43 35  2 35 28  1      50.00000000      25.00000000      50.00000000     180.00000000      75.00000000
  2 44 35  2 36 28  1      50.00000000      25.00000000      50.00000000     180.00000000      75.00000000
  2 45 35  2 37 28  1      50.00000000      25.00000000      50.00000000     180.00000000      75.00000000
  2 46 35  2 38 28  1      50.00000000      25.00000000      50.00000000     180.00000000      75.00000000
  2 47 35  2 39 28  1      50.00000000      25.00000000      50.00000000     180.00000000      75.00000000
  2 48 35  2 40 28  1      50.00000000      25.00000000      50.00000000     180.00000000      75.00000000
  2 49 35  2 41 28  1      50.00000000      25.00000000      50.00000000     180.00000000      75.00000000
  2 50 35  2 42 28  1      50.00000000      25.00000000      50.00000000     180.00000000      75.00000000
  2 51 35  2 43 28  1      50.00000000      25.00000000      50.00000000     180.00000000      75.00000000
  2 52 35  2 44 28  1      50.00000000      25.00000000      50.00000000     180.00000000      75.00000000
  2 53 35  2 45 28  1      50.00000000      25.00000000      50.00000000     180.00000000      75.00000000
  3 9 35  3 1 28  1      50.00000000      25.00000000      50.00000000     180.00000000      75.00000000
  3 10 35  3 2 28  1      50.00000000      25.00000000      50.00000000     180.00000000      75.00000000
  3 11 35  3 3 28  1      50.00000000      25.00000000      50.00000000     180.00000000      75.00000000
  3 12 35  3 4 28  1      50.00000000      25.00000000      50.00000000     180.00000000      75.00000000
  3 13 35  3 5 28  1      50.00000000      25.00000000      50.00000000     180.00000000      75.00000000
  3 14 35  3 6 28  1      50.00000000      25.00000000      50.00000000     180.00000000      75.00000000
  3 15 35  3 7 28  1      50.00000000      25.00000000      50.00000000     180.00000000      75.00000000
  3 16 35  3 8 28  1      50.00000000      25.00000000      50.00000000     180.00000000      75.00000000
  3 17 35  3 9 28  1      50.00000000      25.00000000      50.00000000     180.00000000      75.00000000
  3 18 35  3 10 28  1      50.00000000      25.00000000      50.00000000     180.00000000      75.00000000
  3 19 35  3 11 28  1      50.00000000      25.00000000      50.00000000     180.00000000      75.00000000