# File generated by Flopy version 3.3.5 on 03/04/2022 at 11:17:55.
BEGIN options
  LENGTH_UNITS  feet
  XORIGIN    5100.00000000
  YORIGIN    9100.00000000
END options

BEGIN dimensions
  NLAY  4
  NROW  45
  NCOL  28
END dimensions

BEGIN griddata
  delr
    CONSTANT      50.00000000
  delc
    CONSTANT      50.00000000
  top
    CONSTANT     780.00000000
  botm  LAYERED
    CONSTANT     755.00000000
    CONSTANT     730.00000000
    CONSTANT     705.00000000
    CONSTANT     680.00000000
  idomain
    CONSTANT  1
END griddata

