# File generated by Flopy version 3.3.5 on 03/04/2022 at 11:17:55.
BEGIN options
  SAVE_FLOWS
END options

BEGIN packages
  DIS6  .\gwf-outer.dis  dis
  IC6  .\gwf-outer.ic  ic
  NPF6  .\gwf-outer.npf  npf
  STO6  .\gwf-outer.sto  sto
  CHD6  .\gwf-outer.chd  chd-1
  RCH6  .\gwf-outer.rch  rch-1
  OC6  .\gwf-outer.oc  oc
END packages

