# File generated by Flopy version 3.3.5 on 03/04/2022 at 11:17:55.
BEGIN options
  auxiliary  CONCENTRATION
  PRINT_INPUT
  PRINT_FLOWS
END options

BEGIN dimensions
  MAXBOUND  8
END dimensions

BEGIN period  1
  3 3 23  -19230.00000000       0.00000000
  3 11 20  -19230.00000000       0.00000000
  3 18 17  -19230.00000000       0.00000000
  3 25 14  -19230.00000000       0.00000000
  3 32 11  -19230.00000000       0.00000000
  3 40 8  -19230.00000000       0.00000000
  3 40 3  -15384.00000000       0.00000000
  3 44 11  -17307.00000000       0.00000000
END period  1

