# File generated by Flopy version 3.3.5 on 03/04/2022 at 11:17:55.
BEGIN options
  BUDGET  FILEOUT  gwf-outer.bud
  HEAD  FILEOUT  gwf-outer.hds
  HEAD  PRINT_FORMAT  COLUMNS  10  WIDTH  15  DIGITS  6  GENERAL
END options

BEGIN period  1
  SAVE  HEAD  LAST
  SAVE  HEAD  STEPS  1  250  375  500
  SAVE  BUDGET  LAST
  PRINT  HEAD  LAST
  PRINT  BUDGET  FIRST
  PRINT  BUDGET  LAST
END period  1

