# File generated by Flopy version 3.3.5 on 03/04/2022 at 11:17:55.
BEGIN griddata
  strt  LAYERED
    INTERNAL  FACTOR  1.0
         780.82600000     780.84800000     780.87100000     780.89400000     780.91700000     780.93900000     780.96200000     780.98500000     781.00800000     781.03000000     781.05300000     781.07600000     781.09900000     781.12100000     781.14400000     781.16700000     781.19000000     781.21200000     781.23500000     781.25800000     781.28100000     781.30300000     781.32600000     781.34900000     781.37200000     781.39400000     781.41700000     781.44000000
         780.77300000     780.79600000     780.81900000     780.84200000     780.86500000     780.88700000     780.91000000     780.93300000     780.95600000     780.97800000     781.00100000     781.02400000     781.04700000     781.06900000     781.09200000     781.11500000     781.13800000     781.16000000     781.18300000     781.20600000     781.22900000     781.25100000     781.27400000     781.29700000     781.32000000     781.34200000     781.36500000     781.38800000
         780.72100000     780.74400000     780.76700000     780.79000000     780.81300000     780.83500000     780.85800000     780.88100000     780.90400000     780.92600000     780.94900000     780.97200000     780.99500000     781.01700000     781.04000000     781.06300000     781.08600000     781.10800000     781.13100000     781.15400000     781.17700000     781.19900000     781.22200000     781.24500000     781.26800000     781.29000000     781.31300000     781.33600000
         780.66900000     780.69200000     780.71500000     780.73800000     780.76000000     780.78300000     780.80600000     780.82900000     780.85200000     780.87400000     780.89700000     780.92000000     780.94300000     780.96500000     780.98800000     781.01100000     781.03400000     781.05600000     781.07900000     781.10200000     781.12500000     781.14700000     781.17000000     781.19300000     781.21600000     781.23800000     781.26100000     781.28400000
         780.61700000     780.64000000     780.66300000     780.68600000     780.70800000     780.73100000     780.75400000     780.77700000     780.79900000     780.82200000     780.84500000     780.86800000     780.89100000     780.91300000     780.93600000     780.95900000     780.98200000     781.00400000     781.02700000     781.05000000     781.07300000     781.09500000     781.11800000     781.14100000     781.16400000     781.18600000     781.20900000     781.23200000
         780.56500000     780.58800000     780.61100000     780.63400000     780.65600000     780.67900000     780.70200000     780.72500000     780.74700000     780.77000000     780.79300000     780.81600000     780.83900000     780.86100000     780.88400000     780.90700000     780.93000000     780.95200000     780.97500000     780.99800000     781.02100000     781.04300000     781.06600000     781.08900000     781.11200000     781.13400000     781.15700000     781.18000000
         780.51300000     780.53600000     780.55900000     780.58200000     780.60400000     780.62700000     780.65000000     780.67300000     780.69500000     780.71800000     780.74100000     780.76400000     780.78600000     780.80900000     780.83200000     780.85500000     780.87800000     780.90000000     780.92300000     780.94600000     780.96900000     780.99100000     781.01400000     781.03700000     781.06000000     781.08200000     781.10500000     781.12800000
         780.46100000     780.48400000     780.50700000     780.53000000     780.55200000     780.57500000     780.59800000     780.62100000     780.64300000     780.66600000     780.68900000     780.71200000     780.73400000     780.75700000     780.78000000     780.80300000     780.82600000     780.84800000     780.87100000     780.89400000     780.91700000     780.93900000     780.96200000     780.98500000     781.00800000     781.03000000     781.05300000     781.07600000
         780.40900000     780.43200000     780.45500000     780.47800000     780.50000000     780.52300000     780.54600000     780.56900000     780.59100000     780.61400000     780.63700000     780.66000000     780.68200000     780.70500000     780.72800000     780.75100000     780.77300000     780.79600000     780.81900000     780.84200000     780.86500000     780.88700000     780.91000000     780.93300000     780.95600000     780.97800000     781.00100000     781.02400000
         780.35700000     780.38000000     780.40300000     780.42600000     780.44800000     780.47100000     780.49400000     780.51700000     780.53900000     780.56200000     780.58500000     780.60800000     780.63000000     780.65300000     780.67600000     780.69900000     780.72100000     780.74400000     780.76700000     780.79000000     780.81300000     780.83500000     780.85800000     780.88100000     780.90400000     780.92600000     780.94900000     780.97200000
         780.30500000     780.32800000     780.35100000     780.37400000     780.39600000     780.41900000     780.44200000     780.46500000     780.48700000     780.51000000     780.53300000     780.55600000     780.57800000     780.60100000     780.62400000     780.64700000     780.66900000     780.69200000     780.71500000     780.73800000     780.76000000     780.78300000     780.80600000     780.82900000     780.85200000     780.87400000     780.89700000     780.92000000
         780.25300000     780.27600000     780.29900000     780.32200000     780.34400000     780.36700000     780.39000000     780.41300000     780.43500000     780.45800000     780.48100000     780.50400000     780.52600000     780.54900000     780.57200000     780.59500000     780.61700000     780.64000000     780.66300000     780.68600000     780.70800000     780.73100000     780.75400000     780.77700000     780.79900000     780.82200000     780.84500000     780.86800000
         780.20100000     780.22400000     780.24700000     780.27000000     780.29200000     780.31500000     780.33800000     780.36100000     780.38300000     780.40600000     780.42900000     780.45200000     780.47400000     780.49700000     780.52000000     780.54300000     780.56500000     780.58800000     780.61100000     780.63400000     780.65600000     780.67900000     780.70200000     780.72500000     780.74700000     780.77000000     780.79300000     780.81600000
         780.14900000     780.17200000     780.19500000     780.21800000     780.24000000     780.26300000     780.28600000     780.30900000     780.33100000     780.35400000     780.37700000     780.40000000     780.42200000     780.44500000     780.46800000     780.49100000     780.51300000     780.53600000     780.55900000     780.58200000     780.60400000     780.62700000     780.65000000     780.67300000     780.69500000     780.71800000     780.74100000     780.76400000
         780.09700000     780.12000000     780.14300000     780.16600000     780.18800000     780.21100000     780.23400000     780.25700000     780.27900000     780.30200000     780.32500000     780.34800000     780.37000000     780.39300000     780.41600000     780.43900000     780.46100000     780.48400000     780.50700000     780.53000000     780.55200000     780.57500000     780.59800000     780.62100000     780.64300000     780.66600000     780.68900000     780.71200000
         780.04500000     780.06800000     780.09100000     780.11400000     780.13600000     780.15900000     780.18200000     780.20500000     780.22700000     780.25000000     780.27300000     780.29600000     780.31800000     780.34100000     780.36400000     780.38700000     780.40900000     780.43200000     780.45500000     780.47800000     780.50000000     780.52300000     780.54600000     780.56900000     780.59100000     780.61400000     780.63700000     780.66000000
         779.99400000     780.01600000     780.03900000     780.06200000     780.08400000     780.10700000     780.13000000     780.15300000     780.17500000     780.19800000     780.22100000     780.24400000     780.26600000     780.28900000     780.31200000     780.33500000     780.35700000     780.38000000     780.40300000     780.42600000     780.44800000     780.47100000     780.49400000     780.51700000     780.53900000     780.56200000     780.58500000     780.60800000
         779.94200000     779.96400000     779.98700000     780.01000000     780.03200000     780.05500000     780.07800000     780.10100000     780.12300000     780.14600000     780.16900000     780.19200000     780.21400000     780.23700000     780.26000000     780.28300000     780.30500000     780.32800000     780.35100000     780.37400000     780.39600000     780.41900000     780.44200000     780.46500000     780.48700000     780.51000000     780.53300000     780.55600000
         779.89000000     779.91200000     779.93500000     779.95800000     779.98100000     780.00300000     780.02600000     780.04900000     780.07100000     780.09400000     780.11700000     780.14000000     780.16200000     780.18500000     780.20800000     780.23100000     780.25300000     780.27600000     780.29900000     780.32200000     780.34400000     780.36700000     780.39000000     780.41300000     780.43500000     780.45800000     780.48100000     780.50400000
         779.83800000     779.86000000     779.88300000     779.90600000     779.92900000     779.95100000     779.97400000     779.99700000     780.01900000     780.04200000     780.06500000     780.08800000     780.11000000     780.13300000     780.15600000     780.17900000     780.20100000     780.22400000     780.24700000     780.27000000     780.29200000     780.31500000     780.33800000     780.36100000     780.38300000     780.40600000     780.42900000     780.45200000
         779.78600000     779.80800000     779.83100000     779.85400000     779.87700000     779.89900000     779.92200000     779.94500000     779.96800000     779.99000000     780.01300000     780.03600000     780.05800000     780.08100000     780.10400000     780.12700000     780.14900000     780.17200000     780.19500000     780.21800000     780.24000000     780.26300000     780.28600000     780.30900000     780.33100000     780.35400000     780.37700000     780.40000000
         779.73400000     779.75600000     779.77900000     779.80200000     779.82500000     779.84700000     779.87000000     779.89300000     779.91600000     779.93800000     779.96100000     779.98400000     780.00600000     780.02900000     780.05200000     780.07500000     780.09700000     780.12000000     780.14300000     780.16600000     780.18800000     780.21100000     780.23400000     780.25700000     780.27900000     780.30200000     780.32500000     780.34800000
         779.68200000     779.70400000     779.72700000     779.75000000     779.77300000     779.79500000     779.81800000     779.84100000     779.86400000     779.88600000     779.90900000     779.93200000     779.95500000     779.97700000     780.00000000     780.02300000     780.04500000     780.06800000     780.09100000     780.11400000     780.13600000     780.15900000     780.18200000     780.20500000     780.22700000     780.25000000     780.27300000     780.29600000
         779.63000000     779.65200000     779.67500000     779.69800000     779.72100000     779.74300000     779.76600000     779.78900000     779.81200000     779.83400000     779.85700000     779.88000000     779.90300000     779.92500000     779.94800000     779.97100000     779.99400000     780.01600000     780.03900000     780.06200000     780.08400000     780.10700000     780.13000000     780.15300000     780.17500000     780.19800000     780.22100000     780.24400000
         779.57800000     779.60000000     779.62300000     779.64600000     779.66900000     779.69100000     779.71400000     779.73700000     779.76000000     779.78200000     779.80500000     779.82800000     779.85100000     779.87300000     779.89600000     779.91900000     779.94200000     779.96400000     779.98700000     780.01000000     780.03200000     780.05500000     780.07800000     780.10100000     780.12300000     780.14600000     780.16900000     780.19200000
         779.52600000     779.54800000     779.57100000     779.59400000     779.61700000     779.63900000     779.66200000     779.68500000     779.70800000     779.73000000     779.75300000     779.77600000     779.79900000     779.82100000     779.84400000     779.86700000     779.89000000     779.91200000     779.93500000     779.95800000     779.98100000     780.00300000     780.02600000     780.04900000     780.07100000     780.09400000     780.11700000     780.14000000
         779.47400000     779.49600000     779.51900000     779.54200000     779.56500000     779.58700000     779.61000000     779.63300000     779.65600000     779.67800000     779.70100000     779.72400000     779.74700000     779.76900000     779.79200000     779.81500000     779.83800000     779.86000000     779.88300000     779.90600000     779.92900000     779.95100000     779.97400000     779.99700000     780.01900000     780.04200000     780.06500000     780.08800000
         779.42200000     779.44400000     779.46700000     779.49000000     779.51300000     779.53500000     779.55800000     779.58100000     779.60400000     779.62600000     779.64900000     779.67200000     779.69500000     779.71700000     779.74000000     779.76300000     779.78600000     779.80800000     779.83100000     779.85400000     779.87700000     779.89900000     779.92200000     779.94500000     779.96800000     779.99000000     780.01300000     780.03600000
         779.37000000     779.39200000     779.41500000     779.43800000     779.46100000     779.48300000     779.50600000     779.52900000     779.55200000     779.57400000     779.59700000     779.62000000     779.64300000     779.66500000     779.68800000     779.71100000     779.73400000     779.75600000     779.77900000     779.80200000     779.82500000     779.84700000     779.87000000     779.89300000     779.91600000     779.93800000     779.96100000     779.98400000
         779.31800000     779.34000000     779.36300000     779.38600000     779.40900000     779.43100000     779.45400000     779.47700000     779.50000000     779.52200000     779.54500000     779.56800000     779.59100000     779.61300000     779.63600000     779.65900000     779.68200000     779.70400000     779.72700000     779.75000000     779.77300000     779.79500000     779.81800000     779.84100000     779.86400000     779.88600000     779.90900000     779.93200000
         779.26600000     779.28800000     779.31100000     779.33400000     779.35700000     779.37900000     779.40200000     779.42500000     779.44800000     779.47000000     779.49300000     779.51600000     779.53900000     779.56100000     779.58400000     779.60700000     779.63000000     779.65200000     779.67500000     779.69800000     779.72100000     779.74300000     779.76600000     779.78900000     779.81200000     779.83400000     779.85700000     779.88000000
         779.21400000     779.23600000     779.25900000     779.28200000     779.30500000     779.32700000     779.35000000     779.37300000     779.39600000     779.41800000     779.44100000     779.46400000     779.48700000     779.50900000     779.53200000     779.55500000     779.57800000     779.60000000     779.62300000     779.64600000     779.66900000     779.69100000     779.71400000     779.73700000     779.76000000     779.78200000     779.80500000     779.82800000
         779.16100000     779.18400000     779.20700000     779.23000000     779.25300000     779.27500000     779.29800000     779.32100000     779.34400000     779.36600000     779.38900000     779.41200000     779.43500000     779.45700000     779.48000000     779.50300000     779.52600000     779.54800000     779.57100000     779.59400000     779.61700000     779.63900000     779.66200000     779.68500000     779.70800000     779.73000000     779.75300000     779.77600000
         779.10900000     779.13200000     779.15500000     779.17800000     779.20100000     779.22300000     779.24600000     779.26900000     779.29200000     779.31400000     779.33700000     779.36000000     779.38300000     779.40500000     779.42800000     779.45100000     779.47400000     779.49600000     779.51900000     779.54200000     779.56500000     779.58700000     779.61000000     779.63300000     779.65600000     779.67800000     779.70100000     779.72400000
         779.05700000     779.08000000     779.10300000     779.12600000     779.14800000     779.17100000     779.19400000     779.21700000     779.24000000     779.26200000     779.28500000     779.30800000     779.33100000     779.35300000     779.37600000     779.39900000     779.42200000     779.44400000     779.46700000     779.49000000     779.51300000     779.53500000     779.55800000     779.58100000     779.60400000     779.62600000     779.64900000     779.67200000
         779.00500000     779.02800000     779.05100000     779.07400000     779.09600000     779.11900000     779.14200000     779.16500000     779.18800000     779.21000000     779.23300000     779.25600000     779.27900000     779.30100000     779.32400000     779.34700000     779.37000000     779.39200000     779.41500000     779.43800000     779.46100000     779.48300000     779.50600000     779.52900000     779.55200000     779.57400000     779.59700000     779.62000000
         778.95300000     778.97600000     778.99900000     779.02200000     779.04400000     779.06700000     779.09000000     779.11300000     779.13500000     779.15800000     779.18100000     779.20400000     779.22700000     779.24900000     779.27200000     779.29500000     779.31800000     779.34000000     779.36300000     779.38600000     779.40900000     779.43100000     779.45400000     779.47700000     779.50000000     779.52200000     779.54500000     779.56800000
         778.90100000     778.92400000     778.94700000     778.97000000     778.99200000     779.01500000     779.03800000     779.06100000     779.08300000     779.10600000     779.12900000     779.15200000     779.17400000     779.19700000     779.22000000     779.24300000     779.26600000     779.28800000     779.31100000     779.33400000     779.35700000     779.37900000     779.40200000     779.42500000     779.44800000     779.47000000     779.49300000     779.51600000
         778.84900000     778.87200000     778.89500000     778.91800000     778.94000000     778.96300000     778.98600000     779.00900000     779.03100000     779.05400000     779.07700000     779.10000000     779.12200000     779.14500000     779.16800000     779.19100000     779.21400000     779.23600000     779.25900000     779.28200000     779.30500000     779.32700000     779.35000000     779.37300000     779.39600000     779.41800000     779.44100000     779.46400000
         778.79700000     778.82000000     778.84300000     778.86600000     778.88800000     778.91100000     778.93400000     778.95700000     778.97900000     779.00200000     779.02500000     779.04800000     779.07000000     779.09300000     779.11600000     779.13900000     779.16100000     779.18400000     779.20700000     779.23000000     779.25300000     779.27500000     779.29800000     779.32100000     779.34400000     779.36600000     779.38900000     779.41200000
         778.74500000     778.76800000     778.79100000     778.81400000     778.83600000     778.85900000     778.88200000     778.90500000     778.92700000     778.95000000     778.97300000     778.99600000     779.01800000     779.04100000     779.06400000     779.08700000     779.10900000     779.13200000     779.15500000     779.17800000     779.20100000     779.22300000     779.24600000     779.26900000     779.29200000     779.31400000     779.33700000     779.36000000
         778.69300000     778.71600000     778.73900000     778.76200000     778.78400000     778.80700000     778.83000000     778.85300000     778.87500000     778.89800000     778.92100000     778.94400000     778.96600000     778.98900000     779.01200000     779.03500000     779.05700000     779.08000000     779.10300000     779.12600000     779.14800000     779.17100000     779.19400000     779.21700000     779.24000000     779.26200000     779.28500000     779.30800000
         778.64100000     778.66400000     778.68700000     778.71000000     778.73200000     778.75500000     778.77800000     778.80100000     778.82300000     778.84600000     778.86900000     778.89200000     778.91400000     778.93700000     778.96000000     778.98300000     779.00500000     779.02800000     779.05100000     779.07400000     779.09600000     779.11900000     779.14200000     779.16500000     779.18800000     779.21000000     779.23300000     779.25600000
         778.58900000     778.61200000     778.63500000     778.65800000     778.68000000     778.70300000     778.72600000     778.74900000     778.77100000     778.79400000     778.81700000     778.84000000     778.86200000     778.88500000     778.90800000     778.93100000     778.95300000     778.97600000     778.99900000     779.02200000     779.04400000     779.06700000     779.09000000     779.11300000     779.13500000     779.15800000     779.18100000     779.20400000
         778.53700000     778.56000000     778.58300000     778.60600000     778.62800000     778.65100000     778.67400000     778.69700000     778.71900000     778.74200000     778.76500000     778.78800000     778.81000000     778.83300000     778.85600000     778.87900000     778.90100000     778.92400000     778.94700000     778.97000000     778.99200000     779.01500000     779.03800000     779.06100000     779.08300000     779.10600000     779.12900000     779.15200000
    INTERNAL  FACTOR  1.0
         780.82600000     780.84800000     780.87100000     780.89400000     780.91700000     780.93900000     780.96200000     780.98500000     781.00800000     781.03000000     781.05300000     781.07600000     781.09900000     781.12100000     781.14400000     781.16700000     781.19000000     781.21200000     781.23500000     781.25800000     781.28100000     781.30300000     781.32600000     781.34900000     781.37200000     781.39400000     781.41700000     781.44000000
         780.77300000     780.79600000     780.81900000     780.84200000     780.86500000     780.88700000     780.91000000     780.93300000     780.95600000     780.97800000     781.00100000     781.02400000     781.04700000     781.06900000     781.09200000     781.11500000     781.13800000     781.16000000     781.18300000     781.20600000     781.22900000     781.25100000     781.27400000     781.29700000     781.32000000     781.34200000     781.36500000     781.38800000
         780.72100000     780.74400000     780.76700000     780.79000000     780.81300000     780.83500000     780.85800000     780.88100000     780.90400000     780.92600000     780.94900000     780.97200000     780.99500000     781.01700000     781.04000000     781.06300000     781.08600000     781.10800000     781.13100000     781.15400000     781.17700000     781.19900000     781.22200000     781.24500000     781.26800000     781.29000000     781.31300000     781.33600000
         780.66900000     780.69200000     780.71500000     780.73800000     780.76000000     780.78300000     780.80600000     780.82900000     780.85200000     780.87400000     780.89700000     780.92000000     780.94300000     780.96500000     780.98800000     781.01100000     781.03400000     781.05600000     781.07900000     781.10200000     781.12500000     781.14700000     781.17000000     781.19300000     781.21600000     781.23800000     781.26100000     781.28400000
         780.61700000     780.64000000     780.66300000     780.68600000     780.70800000     780.73100000     780.75400000     780.77700000     780.79900000     780.82200000     780.84500000     780.86800000     780.89100000     780.91300000     780.93600000     780.95900000     780.98200000     781.00400000     781.02700000     781.05000000     781.07300000     781.09500000     781.11800000     781.14100000     781.16400000     781.18600000     781.20900000     781.23200000
         780.56500000     780.58800000     780.61100000     780.63400000     780.65600000     780.67900000     780.70200000     780.72500000     780.74700000     780.77000000     780.79300000     780.81600000     780.83900000     780.86100000     780.88400000     780.90700000     780.93000000     780.95200000     780.97500000     780.99800000     781.02100000     781.04300000     781.06600000     781.08900000     781.11200000     781.13400000     781.15700000     781.18000000
         780.51300000     780.53600000     780.55900000     780.58200000     780.60400000     780.62700000     780.65000000     780.67300000     780.69500000     780.71800000     780.74100000     780.76400000     780.78600000     780.80900000     780.83200000     780.85500000     780.87800000     780.90000000     780.92300000     780.94600000     780.96900000     780.99100000     781.01400000     781.03700000     781.06000000     781.08200000     781.10500000     781.12800000
         780.46100000     780.48400000     780.50700000     780.53000000     780.55200000     780.57500000     780.59800000     780.62100000     780.64300000     780.66600000     780.68900000     780.71200000     780.73400000     780.75700000     780.78000000     780.80300000     780.82600000     780.84800000     780.87100000     780.89400000     780.91700000     780.93900000     780.96200000     780.98500000     781.00800000     781.03000000     781.05300000     781.07600000
         780.40900000     780.43200000     780.45500000     780.47800000     780.50000000     780.52300000     780.54600000     780.56900000     780.59100000     780.61400000     780.63700000     780.66000000     780.68200000     780.70500000     780.72800000     780.75100000     780.77300000     780.79600000     780.81900000     780.84200000     780.86500000     780.88700000     780.91000000     780.93300000     780.95600000     780.97800000     781.00100000     781.02400000
         780.35700000     780.38000000     780.40300000     780.42600000     780.44800000     780.47100000     780.49400000     780.51700000     780.53900000     780.56200000     780.58500000     780.60800000     780.63000000     780.65300000     780.67600000     780.69900000     780.72100000     780.74400000     780.76700000     780.79000000     780.81300000     780.83500000     780.85800000     780.88100000     780.90400000     780.92600000     780.94900000     780.97200000
         780.30500000     780.32800000     780.35100000     780.37400000     780.39600000     780.41900000     780.44200000     780.46500000     780.48700000     780.51000000     780.53300000     780.55600000     780.57800000     780.60100000     780.62400000     780.64700000     780.66900000     780.69200000     780.71500000     780.73800000     780.76000000     780.78300000     780.80600000     780.82900000     780.85200000     780.87400000     780.89700000     780.92000000
         780.25300000     780.27600000     780.29900000     780.32200000     780.34400000     780.36700000     780.39000000     780.41300000     780.43500000     780.45800000     780.48100000     780.50400000     780.52600000     780.54900000     780.57200000     780.59500000     780.61700000     780.64000000     780.66300000     780.68600000     780.70800000     780.73100000     780.75400000     780.77700000     780.79900000     780.82200000     780.84500000     780.86800000
         780.20100000     780.22400000     780.24700000     780.27000000     780.29200000     780.31500000     780.33800000     780.36100000     780.38300000     780.40600000     780.42900000     780.45200000     780.47400000     780.49700000     780.52000000     780.54300000     780.56500000     780.58800000     780.61100000     780.63400000     780.65600000     780.67900000     780.70200000     780.72500000     780.74700000     780.77000000     780.79300000     780.81600000
         780.14900000     780.17200000     780.19500000     780.21800000     780.24000000     780.26300000     780.28600000     780.30900000     780.33100000     780.35400000     780.37700000     780.40000000     780.42200000     780.44500000     780.46800000     780.49100000     780.51300000     780.53600000     780.55900000     780.58200000     780.60400000     780.62700000     780.65000000     780.67300000     780.69500000     780.71800000     780.74100000     780.76400000
         780.09700000     780.12000000     780.14300000     780.16600000     780.18800000     780.21100000     780.23400000     780.25700000     780.27900000     780.30200000     780.32500000     780.34800000     780.37000000     780.39300000     780.41600000     780.43900000     780.46100000     780.48400000     780.50700000     780.53000000     780.55200000     780.57500000     780.59800000     780.62100000     780.64300000     780.66600000     780.68900000     780.71200000
         780.04500000     780.06800000     780.09100000     780.11400000     780.13600000     780.15900000     780.18200000     780.20500000     780.22700000     780.25000000     780.27300000     780.29600000     780.31800000     780.34100000     780.36400000     780.38700000     780.40900000     780.43200000     780.45500000     780.47800000     780.50000000     780.52300000     780.54600000     780.56900000     780.59100000     780.61400000     780.63700000     780.66000000
         779.99400000     780.01600000     780.03900000     780.06200000     780.08400000     780.10700000     780.13000000     780.15300000     780.17500000     780.19800000     780.22100000     780.24400000     780.26600000     780.28900000     780.31200000     780.33500000     780.35700000     780.38000000     780.40300000     780.42600000     780.44800000     780.47100000     780.49400000     780.51700000     780.53900000     780.56200000     780.58500000     780.60800000