# File generated by Flopy version 3.3.5 on 03/04/2022 at 11:17:55.
BEGIN options
  auxiliary  CONCENTRATION
END options

BEGIN dimensions
  MAXBOUND  792
END dimensions

BEGIN period  1
  1 1 1     787.39900000       0.00000000
  1 1 40     791.76700000       0.00000000
  1 2 1     785.31900000       0.00000000
  1 2 40     789.68700000       0.00000000
  1 3 1     783.23900000       0.00000000
  1 3 40     787.60700000       0.00000000
  1 4 1     781.36700000       0.00000000
  1 4 40     785.73500000       0.00000000
  1 5 1     780.11900000       0.00000000
  1 5 40     784.48700000       0.00000000
  1 6 1     779.49500000       0.00000000
  1 6 40     783.86300000       0.00000000
  1 7 1     779.18300000       0.00000000
  1 7 40     783.55100000       0.00000000
  1 8 1     779.02700000       0.00000000
  1 8 40     783.39500000       0.00000000
  1 9 1     778.94900000       0.00000000
  1 9 40     783.31700000       0.00000000
  1 10 1     778.89700000       0.00000000
  1 10 40     783.26500000       0.00000000
  1 11 1     778.84500000       0.00000000
  1 11 40     783.21300000       0.00000000
  1 12 1     778.79300000       0.00000000
  1 12 40     783.16100000       0.00000000
  1 13 1     778.74100000       0.00000000
  1 13 40     783.10900000       0.00000000
  1 14 1     778.68900000       0.00000000
  1 14 40     783.05700000       0.00000000
  1 15 1     778.63700000       0.00000000
  1 15 40     783.00500000       0.00000000
  1 16 1     778.58500000       0.00000000
  1 16 40     782.95300000       0.00000000
  1 17 1     778.53300000       0.00000000
  1 17 40     782.90100000       0.00000000
  1 18 1     778.48100000       0.00000000
  1 18 40     782.84900000       0.00000000
  1 19 1     778.42900000       0.00000000
  1 19 40     782.79700000       0.00000000
  1 20 1     778.37700000       0.00000000
  1 20 40     782.74500000       0.00000000
  1 21 1     778.32500000       0.00000000
  1 21 40     782.69300000       0.00000000
  1 22 1     778.27300000       0.00000000
  1 22 40     782.64100000       0.00000000
  1 23 1     778.22100000       0.00000000
  1 23 40     782.58900000       0.00000000
  1 24 1     778.16900000       0.00000000
  1 24 40     782.53700000       0.00000000
  1 25 1     778.11700000       0.00000000
  1 25 40     782.48500000       0.00000000
  1 26 1     778.06500000       0.00000000
  1 26 40     782.43300000       0.00000000
  1 27 1     778.01300000       0.00000000
  1 27 40     782.38100000       0.00000000
  1 28 1     777.96100000       0.00000000
  1 28 40     782.32900000       0.00000000
  1 29 1     777.90900000       0.00000000
  1 29 40     782.27700000       0.00000000
  1 30 1     777.85700000       0.00000000
  1 30 40     782.22500000       0.00000000
  1 31 1     777.80500000       0.00000000
  1 31 40     782.17300000       0.00000000
  1 32 1     777.75300000       0.00000000
  1 32 40     782.12100000       0.00000000
  1 33 1     777.70100000       0.00000000
  1 33 40     782.06900000       0.00000000
  1 34 1     777.64900000       0.00000000
  1 34 40     782.01700000       0.00000000
  1 35 1     777.59700000       0.00000000
  1 35 40     781.96500000       0.00000000
  1 36 1     777.54500000       0.00000000
  1 36 40     781.91300000       0.00000000
  1 37 1     777.49300000       0.00000000
  1 37 40     781.86100000       0.00000000
  1 38 1     777.44100000       0.00000000
  1 38 40     781.80900000       0.00000000
  1 39 1     777.38900000       0.00000000
  1 39 40     781.75700000       0.00000000
  1 40 1     777.33700000       0.00000000
  1 40 40     781.70500000       0.00000000
  1 41 1     777.28500000       0.00000000
  1 41 40     781.65300000       0.00000000
  1 42 1     777.23300000       0.00000000
  1 42 40     781.60100000       0.00000000
  1 43 1     777.18100000       0.00000000
  1 43 40     781.54900000       0.00000000
  1 44 1     777.12900000       0.00000000
  1 44 40     781.49700000       0.00000000
  1 45 1     777.07700000       0.00000000
  1 45 40     781.44500000       0.00000000
  1 46 1     777.02500000       0.00000000
  1 46 40     781.39300000       0.00000000
  1 47 1     776.97300000       0.00000000
  1 47 40     781.34100000       0.00000000
  1 48 1     776.92100000       0.00000000
  1 48 40     781.28900000       0.00000000
  1 49 1     776.86900000       0.00000000
  1 49 40     781.23700000       0.00000000
  1 50 1     776.81700000       0.00000000
  1 50 40     781.18500000       0.00000000
  1 51 1     776.76500000       0.00000000
  1 51 40     781.13300000       0.00000000
  1 52 1     776.71300000       0.00000000
  1 52 40     781.08100000       0.00000000
  1 53 1     776.66100000       0.00000000
  1 53 40     781.02900000       0.00000000
  1 54 1     776.58300000       0.00000000
  1 54 40     780.95100000       0.00000000
  1 55 1     776.42700000       0.00000000
  1 55 40     780.79500000       0.00000000
  1 56 1     776.11500000       0.00000000
  1 56 40     780.48300000       0.00000000
  1 57 1     775.49100000       0.00000000
  1 57 40     779.85900000       0.00000000
  1 58 1     774.24300000       0.00000000
  1 58 40     778.61100000       0.00000000
  1 59 1     772.37100000       0.00000000
  1 59 40     776.73900000       0.00000000
  1 60 1     770.29100000       0.00000000
  1 60 40     774.65900000       0.00000000
  1 61 1     768.21100000       0.00000000
  1 61 40     772.57900000       0.00000000
  1 1 2     788.21800000       0.00000000
  1 61 2     769.03000000       0.00000000
  1 1 3     788.76400000       0.00000000
  1 61 3     769.57600000       0.00000000
  1 1 4     789.03700000       0.00000000
  1 61 4     769.84900000       0.00000000
  1 1 5     789.17300000       0.00000000
  1 61 5     769.98500000       0.00000000
  1 1 6     789.24100000       0.00000000
  1 61 6     770.05300000       0.00000000
  1 1 7     789.27600000       0.00000000
  1 61 7     770.08800000       0.00000000
  1 1 8     789.29800000       0.00000000
  1 61 8     770.11000000       0.00000000
  1 1 9     789.32100000       0.00000000
  1 61 9     770.13300000       0.00000000
  1 1 10     789.34400000       0.00000000
  1 61 10     770.15600000       0.00000000
  1 1 11     789.36700000       0.00000000
  1 61 11     770.17900000       0.00000000
  1 1 12     789.38900000       0.00000000
  1 61 12     770.20100000       0.00000000
  1 1 13     789.41200000       0.00000000
  1 61 13     770.22400000       0.00000000
  1 1 14     789.43500000       0.00000000
  1 61 14     770.24700000       0.00000000
  1 1 15     789.45800000       0.00000000
  1 61 15     770.26900000       0.00000000
  1 1 16     789.48000000       0.00000000
  1 61 16     770.29200000       0.00000000
  1 1 17     789.50300000       0.00000000
  1 61 17     770.31500000       0.00000000
  1 1 18     789.52600000       0.00000000
  1 61 18     770.33800000       0.00000000
  1 1 19     789.54900000       0.00000000
  1 61 19     770.36000000       0.00000000
  1 1 20     789.57100000       0.00000000
  1 61 20     770.38300000       0.00000000
  1 1 21     789.59400000       0.00000000
  1 61 21     770.40600000       0.00000000
  1 1 22     789.61700000       0.00000000
  1 61 22     770.42900000       0.00000000
  1 1 23     789.64000000       0.00000000
  1 61 23     770.45100000       0.00000000
  1 1 24     789.66200000       0.00000000
  1 61 24     770.47400000       0.00000000
  1 1 25     789.68500000       0.00000000
  1 61 25     770.49700000       0.00000000
  1 1 26     789.70800000       0.00000000
  1 61 26     770.52000000       0.00000000
  1 1 27     789.73100000       0.00000000
  1 61 27     770.54200000       0.00000000
  1 1 28     789.75300000       0.00000000
  1 61 28     770.56500000       0.00000000
  1 1 29     789.77600000       0.00000000
  1 61 29     770.58800000       0.00000000
  1 1 30     789.79900000       0.00000000
  1 61 30     770.61100000       0.00000000
  1 1 31     789.82100000       0.00000000
  1 61 31     770.63300000       0.00000000
  1 1 32     789.84400000       0.00000000
  1 61 32     770.65600000       0.00000000
  1 1 33     789.86700000       0.00000000
  1 61 33     770.67900000       0.00000000
  1 1 34     789.89000000       0.00000000
  1 61 34     770.70200000       0.00000000
  1 1 35     789.92400000       0.00000000
  1 61 35     770.73600000       0.00000000
  1 1 36     789.99200000       0.00000000
  1 61 36     770.80400000       0.00000000
  1 1 37     790.12900000       0.00000000
  1 61 37     770.94100000       0.00000000
  1 1 38     790.40200000       0.00000000
  1 61 38     771.21400000       0.00000000
  1 1 39     790.94800000       0.00000000
  1 61 39     771.76000000       0.00000000
  2 1 1     787.39900000       0.00000000
  2 1 40     791.76700000       0.00000000
  2 2 1     785.31900000       0.00000000
  2 2 40     789.68700000       0.00000000
  2 3 1     783.23900000       0.00000000
  2 3 40     787.60700000       0.00000000
  2 4 1     781.36700000       0.00000000
  2 4 40     785.73500000       0.00000000
  2 5 1     780.11900000       0.00000000
  2 5 40     784.48700000       0.00000000
  2 6 1     779.49500000       0.00000000
  2 6 40     783.86300000       0.00000000
  2 7 1     779.18300000       0.00000000
  2 7 40     783.55100000       0.00000000
  2 8 1     779.02700000       0.00000000
  2 8 40     783.39500000       0.00000000
  2 9 1     778.94900000       0.00000000
  2 9 40     783.31700000       0.00000000
  2 10 1     778.89700000       0.00000000
  2 10 40     783.26500000       0.00000000
  2 11 1     778.84500000       0.00000000
  2 11 40     783.21300000       0.00000000
  2 12 1     778.79300000       0.00000000
  2 12 40     783.16100000       0.00000000
  2 13 1     778.74100000       0.00000000
  2 13 40     783.10900000       0.00000000
  2 14 1     778.68900000       0.00000000
  2 14 40     783.05700000       0.00000000
  2 15 1     778.63700000       0.00000000
  2 15 40     783.00500000       0.00000000
  2 16 1     778.58500000       0.00000000
  2 16 40     782.95300000       0.00000000
  2 17 1     778.53300000       0.00000000
  2 17 40     782.90100000       0.00000000
  2 18 1     778.48100000       0.00000000
  2 18 40     782.84900000       0.00000000
  2 19 1     778.42900000       0.00000000
  2 19 40     782.79700000       0.00000000
  2 20 1     778.37700000       0.00000000
  2 20 40     782.74500000       0.00000000
  2 21 1     778.32500000       0.00000000
  2 21 40     782.69300000       0.00000000
  2 22 1     778.27300000       0.00000000
  2 22 40     782.64100000       0.00000000
  2 23 1     778.22100000       0.00000000
  2 23 40     782.58900000       0.00000000
  2 24 1     778.16900000       0.00000000
  2 24 40     782.53700000       0.00000000
  2 25 1     778.11700000       0.00000000
  2 25 40     782.48500000       0.00000000
  2 26 1     778.06500000       0.00000000
  2 26 40     782.43300000       0.00000000
  2 27 1     778.01300000       0.00000000
  2 27 40     782.38100000       0.00000000
  2 28 1     777.96100000       0.00000000
  2 28 40     782.32900000       0.00000000
  2 29 1     777.90900000       0.00000000
  2 29 40     782.27700000       0.00000000
  2 30 1     777.85700000       0.00000000
  2 30 40     782.22500000       0.00000000
  2 31 1     777.80500000       0.00000000
  2 31 40     782.17300000       0.00000000
  2 32 1     777.75300000       0.00000000
  2 32 40     782.12100000       0.00000000
  2 33 1     777.70100000       0.00000000
  2 33 40     782.06900000       0.00000000
  2 34 1     777.64900000       0.00000000
  2 34 40     782.01700000       0.00000000
  2 35 1     777.59700000       0.00000000
  2 35 40     781.96500000       0.00000000
  2 36 1     777.54500000       0.00000000
  2 36 40     781.91300000       0.00000000
  2 37 1     777.49300000       0.00000000
  2 37 40     781.86100000       0.00000000
  2 38 1     777.44100000       0.00000000
  2 38 40     781.80900000       0.00000000
  2 39 1     777.38900000       0.00000000
  2 39 40     781.75700000       0.00000000
  2 40 1     777.33700000       0.00000000
  2 40 40     781.70500000       0.00000000
  2 41 1     777.28500000       0.00000000
  2 41 40     781.65300000       0.00000000
  2 42 1     777.23300000       0.00000000
  2 42 40     781.60100000       0.00000000
  2 43 1     777.18100000       0.00000000
  2 43 40     781.54900000       0.00000000
  2 44 1     777.12900000       0.00000000
  2 44 40     781.49700000       0.00000000
  2 45 1     777.07700000       0.00000000
  2 45 40     781.44500000       0.00000000
  2 46 1     777.02500000       0.00000000
  2 46 40     781.39300000       0.00000000
  2 47 1     776.97300000       0.00000000
  2 47 40     781.34100000       0.00000000
  2 48 1     776.92100000       0.00000000
  2 48 40     781.28900000       0.00000000
  2 49 1     776.86900000       0.00000000
  2 49 40     781.23700000       0.00000000
  2 50 1     776.81700000       0.00000000
  2 50 40     781.18500000       0.00000000
  2 51 1     776.76500000       0.00000000
  2 51 40     781.13300000       0.00000000
  2 52 1     776.71300000       0.00000000
  2 52 40     781.08100000       0.00000000
  2 53 1     776.66100000       0.00000000
  2 53 40     781.02900000       0.00000000
  2 54 1     776.58300000       0.00000000
  2 54 40     780.95100000       0.00000000
  2 55 1     776.42700000       0.00000000
  2 55 40     780.79500000       0.00000000
  2 56 1     776.11500000       0.00000000
  2 56 40     780.48300000       0.00000000
  2 57 1     775.49100000       0.00000000
  2 57 40     779.85900000       0.00000000
  2 58 1     774.24300000       0.00000000
  2 58 40     778.61100000       0.00000000
  2 59 1     772.37100000       0.00000000
  2 59 40     776.73900000       0.00000000
  2 60 1     770.29100000       0.00000000
  2 60 40     774.65900000       0.00000000
  2 61 1     768.21100000       0.00000000
  2 61 40     772.57900000       0.00000000
  2 1 2     788.21800000       0.00000000
  2 61 2     769.03000000       0.00000000
  2 1 3     788.76400000       0.00000000
  2 61 3     769.57600000       0.00000000
  2 1 4     789.03700000       0.00000000
  2 61 4     769.84900000       0.00000000
  2 1 5     789.17300000       0.00000000
  2 61 5     769.98500000       0.00000000
  2 1 6     789.24100000       0.00000000
  2 61 6     770.05300000       0.00000000
  2 1 7     789.27600000       0.00000000
  2 61 7     770.08800000       0.00000000
  2 1 8     789.29800000       0.00000000
  2 61 8     770.11000000       0.00000000
  2 1 9     789.32100000       0.00000000
  2 61 9     770.13300000       0.00000000
  2 1 10     789.34400000       0.00000000
  2 61 10     770.15600000       0.00000000
  2 1 11     789.36700000       0.00000000
  2 61 11     770.17900000       0.00000000
  2 1 12     789.38900000       0.00000000
  2 61 12     770.20100000       0.00000000
  2 1 13     789.41200000       0.00000000
  2 61 13     770.22400000       0.00000000
  2 1 14     789.43500000       0.00000000
  2 61 14     770.24700000       0.00000000
  2 1 15     789.45800000       0.00000000
  2 61 15     770.26900000       0.00000000
  2 1 16     789.48000000       0.00000000
  2 61 16     770.29200000       0.00000000
  2 1 17     789.50300000       0.00000000
  2 61 17     770.31500000       0.00000000
  2 1 18     789.52600000       0.00000000
  2 61 18     770.33800000       0.00000000
  2 1 19     789.54900000       0.00000000
  2 61 19     770.36000000       0.00000000
  2 1 20     789.57100000       0.00000000
  2 61 20     770.38300000       0.00000000
  2 1 21     789.59400000       0.00000000
  2 61 21     770.40600000       0.00000000
  2 1 22     789.61700000       0.00000000
  2 61 22     770.42900000       0.00000000
  2 1 23     789.64000000       0.00000000
  2 61 23     770.45100000       0.00000000
  2 1 24     789.66200000       0.00000000
  2 61 24     770.47400000       0.00000000
  2 1 25     789.68500000       0.00000000
  2 61 25     770.49700000       0.00000000
  2 1 26     789.70800000       0.00000000
  2 61 26     770.52000000       0.00000000
  2 1 27     789.73100000       0.00000000
  2 61 27     770.54200000       0.00000000
  2 1 28     789.75300000       0.00000000
  2 61 28     770.56500000       0.00000000
  2 1 29     789.77600000       0.00000000
  2 61 29     770.58800000       0.00000000
  2 1 30     789.79900000       0.00000000
  2 61 30     770.61100000       0.00000000
  2 1 31     789.82100000       0.00000000
  2 61 31     770.63300000       0.00000000
  2 1 32     789.84400000       0.00000000
  2 61 32     770.65600000       0.00000000
  2 1 33     789.86700000       0.00000000
  2 61 33     770.67900000       0.00000000
  2 1 34     789.89000000       0.00000000
  2 61 34     770.70200000       0.00000000
  2 1 35     789.92400000       0.00000000
  2 61 35     770.73600000       0.00000000
  2 1 36     789.99200000       0.00000000
  2 61 36     770.80400000       0.00000000
  2 1 37     790.12900000       0.00000000
  2 61 37     770.94100000       0.00000000
  2 1 38     790.40200000       0.00000000
  2 61 38     771.21400000       0.00000000
  2 1 39     790.94800000       0.00000000
  2 61 39     771.76000000       0.00000000
  3 1 1     787.39900000       0.00000000
  3 1 40     791.76700000       0.00000000
  3 2 1     785.31900000       0.00000000
  3 2 40     789.68700000       0.00000000
  3 3 1     783.23900000       0.00000000
  3 3 40     787.60700000       0.00000000
  3 4 1     781.36700000       0.00000000
  3 4 40     785.73500000       0.00000000
  3 5 1     780.11900000       0.00000000
  3 5 40     784.48700000       0.00000000
  3 6 1     779.49500000       0.00000000
  3 6 40     783.86300000       0.00000000
  3 7 1     779.18300000       0.00000000
  3 7 40     783.55100000       0.00000000
  3 8 1     779.02700000       0.00000000
  3 8 40     783.39500000       0.00000000
  3 9 1     778.94900000       0.00000000
  3 9 40     783.31700000       0.00000000
  3 10 1     778.89700000       0.00000000
  3 10 40     783.26500000       0.00000000
  3 11 1     778.84500000       0.00000000
  3 11 40     783.21300000       0.00000000
  3 12 1     778.79300000       0.00000000
  3 12 40     783.16100000       0.00000000
  3 13 1     778.74100000       0.00000000
  3 13 40     783.10900000       0.00000000
  3 14 1     778.68900000       0.00000000
  3 14 40     783.05700000       0.00000000
  3 15 1     778.63700000       0.00000000
  3 15 40     783.00500000       0.00000000
  3 16 1     778.58500000       0.00000000
  3 16 40     782.95300000       0.00000000
  3 17 1     778.53300000       0.00000000
  3 17 40     782.90100000       0.00000000
  3 18 1     778.48100000       0.00000000
  3 18 40     782.84900000       0.00000000
  3 19 1     778.42900000       0.00000000
  3 19 40     782.79700000       0.00000000
  3 20 1     778.37700000       0.00000000
  3 20 40     782.74500000       0.00000000
  3 21 1     778.32500000       0.00000000
  3 21 40     782.69300000       0.00000000
  3 22 1     778.27300000       0.00000000
  3 22 40     782.64100000       0.00000000
  3 23 1     778.22100000       0.00000000
  3 23 40     782.58900000       0.00000000
  3 24 1     778.16900000       0.00000000
  3 24 40     782.53700000       0.00000000
  3 25 1     778.11700000       0.00000000
  3 25 40     782.48500000       0.00000000
  3 26 1     778.06500000       0.00000000
  3 26 40     782.43300000       0.00000000
  3 27 1     778.01300000       0.00000000
  3 27 40     782.38100000       0.00000000
  3 28 1     777.96100000       0.00000000
  3 28 40     782.32900000       0.00000000
  3 29 1     777.90900000       0.00000000
  3 29 40     782.27700000       0.00000000
  3 30 1     777.85700000       0.00000000
  3 30 40     782.22500000       0.00000000
  3 31 1     777.80500000       0.00000000
  3 31 40     782.17300000       0.00000000
  3 32 1     777.75300000       0.00000000
  3 32 40     782.12100000       0.00000000
  3 33 1     777.70100000       0.00000000
  3 33 40     782.06900000       0.00000000
  3 34 1     777.64900000       0.00000000
  3 34 40     782.01700000       0.00000000
  3 35 1     777.59700000       0.00000000
  3 35 40     781.96500000       0.00000000
  3 36 1     777.54500000       0.00000000
  3 36 40     781.91300000       0.00000000
  3 37 1     777.49300000       0.00000000
  3 37 40     781.86100000       0.00000000
  3 38 1     777.44100000       0.00000000
  3 38 40     781.80900000       0.00000000
  3 39 1     777.38900000       0.00000000
  3 39 40     781.75700000       0.00000000
  3 40 1     777.33700000       0.00000000
  3 40 40     781.70500000       0.00000000
  3 41 1     777.28500000       0.00000000
  3 41 40     781.65300000       0.00000000
  3 42 1     777.23300000       0.00000000
  3 42 40     781.60100000       0.00000000
  3 43 1     777.18100000       0.00000000
  3 43 40     781.54900000       0.00000000
  3 44 1     777.12900000       0.00000000
  3 44 40     781.49700000       0.00000000
  3 45 1     777.07700000       0.00000000
  3 45 40     781.44500000       0.00000000
  3 46 1     777.02500000       0.00000000
  3 46 40     781.39300000       0.00000000
  3 47 1     776.97300000       0.00000000
  3 47 40     781.34100000       0.00000000
  3 48 1     776.92100000       0.00000000
  3 48 40     781.28900000       0.00000000
  3 49 1     776.86900000       0.00000000
  3 49 40     781.23700000       0.00000000
  3 50 1     776.81700000       0.00000000
  3 50 40     781.18500000       0.00000000
  3 51 1     776.76500000       0.00000000
  3 51 40     781.13300000       0.00000000
  3 52 1     776.71300000       0.00000000
  3 52 40     781.08100000       0.00000000
  3 53 1     776.66100000       0.00000000
  3 53 40     781.02900000       0.00000000
  3 54 1     776.58300000       0.00000000
  3 54 40     780.95100000       0.00000000
  3 55 1     776.42700000       0.00000000
  3 55 40     780.79500000       0.00000000
  3 56 1     776.11500000       0.00000000
  3 56 40     780.48300000       0.00000000
  3 57 1     775.49100000       0.00000000
  3 57 40     779.85900000       0.00000000
  3 58 1     774.24300000       0.00000000
  3 58 40     778.61100000       0.00000000
  3 59 1     772.37100000       0.00000000
  3 59 40     776.73900000       0.00000000
  3 60 1     770.29100000       0.00000000
  3 60 40     774.65900000       0.00000000
  3 61 1     768.21100000       0.00000000
  3 61 40     772.57900000       0.00000000
  3 1 2     788.21800000       0.00000000
  3 61 2     769.03000000       0.00000000
  3 1 3     788.76400000       0.00000000
  3 61 3     769.57600000       0.00000000
  3 1 4     789.03700000       0.00000000
  3 61 4     769.84900000       0.00000000
  3 1 5     789.17300000       0.00000000
  3 61 5     769.98500000       0.00000000
  3 1 6     789.24100000       0.00000000
  3 61 6     770.05300000       0.00000000
  3 1 7     789.27600000       0.00000000
  3 61 7     770.08800000       0.00000000
  3 1 8     789.29800000       0.00000000
  3 61 8     770.11000000       0.00000000
  3 1 9     789.32100000       0.00000000
  3 61 9     770.13300000       0.00000000
  3 1 10     789.34400000       0.00000000
  3 61 10     770.15600000       0.00000000
  3 1 11     789.36700000       0.00000000
  3 61 11     770.17900000       0.00000000
  3 1 12     789.38900000       0.00000000
  3 61 12     770.20100000       0.00000000
  3 1 13     789.41200000       0.00000000
  3 61 13     770.22400000       0.00000000
  3 1 14     789.43500000       0.00000000
  3 61 14     770.24700000       0.00000000
  3 1 15     789.45800000       0.00000000
  3 61 15     770.26900000       0.00000000
  3 1 16     789.48000000       0.00000000
  3 61 16     770.29200000       0.00000000
  3 1 17     789.50300000       0.00000000
  3 61 17     770.31500000       0.00000000
  3 1 18     789.52600000       0.00000000
  3 61 18     770.33800000       0.00000000
  3 1 19     789.54900000       0.00000000
  3 61 19     770.36000000       0.00000000
  3 1 20     789.57100000       0.00000000
  3 61 20     770.38300000       0.00000000
  3 1 21     789.59400000       0.00000000
  3 61 21     770.40600000       0.00000000
  3 1 22     789.61700000       0.00000000
  3 61 22     770.42900000       0.00000000
  3 1 23     789.64000000       0.00000000
  3 61 23     770.45100000       0.00000000
  3 1 24     789.66200000       0.00000000
  3 61 24     770.47400000       0.00000000
  3 1 25     789.68500000       0.00000000
  3 61 25     770.49700000       0.00000000
  3 1 26     789.70800000       0.00000000
  3 61 26     770.52000000       0.00000000
  3 1 27     789.73100000       0.00000000
  3 61 27     770.54200000       0.00000000
  3 1 28     789.75300000       0.00000000
  3 61 28     770.56500000       0.00000000
  3 1 29     789.77600000       0.00000000
  3 61 29     770.58800000       0.00000000
  3 1 30     789.79900000       0.00000000
  3 61 30     770.61100000       0.00000000
  3 1 31     789.82100000       0.00000000
  3 61 31     770.63300000       0.00000000
  3 1 32     789.84400000       0.00000000
  3 61 32     770.65600000       0.00000000
  3 1 33     789.86700000       0.00000000
  3 61 33     770.67900000       0.00000000
  3 1 34     789.89000000       0.00000000
  3 61 34     770.70200000       0.00000000
  3 1 35     789.92400000       0.00000000
  3 61 35     770.73600000       0.00000000
  3 1 36     789.99200000       0.00000000
  3 61 36     770.80400000       0.00000000
  3 1 37     790.12900000       0.00000000
  3 61 37     770.94100000       0.00000000
  3 1 38     790.40200000       0.00000000
  3 61 38     771.21400000       0.00000000
  3 1 39     790.94800000       0.00000000
  3 61 39     771.76000000       0.00000000
  4 1 1     787.39900000       0.00000000
  4 1 40     791.76700000       0.00000000
  4 2 1     785.31900000       0.00000000
  4 2 40     789.68700000       0.00000000
  4 3 1     783.23900000       0.00000000
  4 3 40     787.60700000       0.00000000
  4 4 1     781.36700000       0.00000000
  4 4 40     785.73500000       0.00000000
  4 5 1     780.11900000       0.00000000
  4 5 40     784.48700000       0.00000000
  4 6 1     779.49500000       0.00000000
  4 6 40     783.86300000       0.00000000
  4 7 1     779.18300000       0.00000000
  4 7 40     783.55100000       0.00000000
  4 8 1     779.02700000       0.00000000
  4 8 40     783.39500000       0.00000000
  4 9 1     778.94900000       0.00000000
  4 9 40     783.31700000       0.00000000
  4 10 1     778.89700000       0.00000000
  4 10 40     783.26500000       0.00000000
  4 11 1     778.84500000       0.00000000
  4 11 40     783.21300000       0.00000000
  4 12 1     778.79300000       0.00000000
  4 12 40     783.16100000       0.00000000
  4 13 1     778.74100000       0.00000000
  4 13 40     783.10900000       0.00000000
  4 14 1     778.68900000       0.00000000
  4 14 40     783.05700000       0.00000000
  4 15 1     778.63700000       0.00000000
  4 15 40     783.00500000       0.00000000
  4 16 1     778.58500000       0.00000000
  4 16 40     782.95300000       0.00000000
  4 17 1     778.53300000       0.00000000
  4 17 40     782.90100000       0.00000000
  4 18 1     778.48100000       0.00000000
  4 18 40     782.84900000       0.00000000
  4 19 1     778.42900000       0.00000000
  4 19 40     782.79700000       0.00000000
  4 20 1     778.37700000       0.00000000
  4 20 40     782.74500000       0.00000000
  4 21 1     778.32500000       0.00000000
  4 21 40     782.69300000       0.00000000
  4 22 1     778.27300000       0.00000000
  4 22 40     782.64100000       0.00000000
  4 23 1     778.22100000       0.00000000
  4 23 40     782.58900000       0.00000000
  4 24 1     778.16900000       0.00000000
  4 24 40     782.53700000       0.00000000
  4 25 1     778.11700000       0.00000000
  4 25 40     782.48500000       0.00000000
  4 26 1     778.06500000       0.00000000
  4 26 40     782.43300000       0.00000000
  4 27 1     778.01300000       0.00000000
  4 27 40     782.38100000       0.00000000
  4 28 1     777.96100000       0.00000000
  4 28 40     782.32900000       0.00000000
  4 29 1     777.90900000       0.00000000
  4 29 40     782.27700000       0.00000000
  4 30 1     777.85700000       0.00000000
  4 30 40     782.22500000       0.00000000
  4 31 1     777.80500000       0.00000000
  4 31 40     782.17300000       0.00000000
  4 32 1     777.75300000       0.00000000
  4 32 40     782.12100000       0.00000000
  4 33 1     777.70100000       0.00000000
  4 33 40     782.06900000       0.00000000
  4 34 1     777.64900000       0.00000000
  4 34 40     782.01700000       0.00000000
  4 35 1     777.59700000       0.00000000
  4 35 40     781.96500000       0.00000000
  4 36 1     777.54500000       0.00000000
  4 36 40     781.91300000       0.00000000
  4 37 1     777.49300000       0.00000000
  4 37 40     781.86100000       0.00000000
  4 38 1     777.44100000       0.00000000
  4 38 40     781.80900000       0.00000000
  4 39 1     777.38900000       0.00000000
  4 39 40     781.75700000       0.00000000
  4 40 1     777.33700000       0.00000000
  4 40 40     781.70500000       0.00000000
  4 41 1     777.28500000       0.00000000
  4 41 40     781.65300000       0.00000000
  4 42 1     777.23300000       0.00000000
  4 42 40     781.60100000       0.00000000
  4 43 1     777.18100000       0.00000000
  4 43 40     781.54900000       0.00000000
  4 44 1     777.12900000       0.00000000
  4 44 40     781.49700000       0.00000000
  4 45 1     777.07700000       0.00000000
  4 45 40     781.44500000       0.00000000
  4 46 1     777.02500000       0.00000000
  4 46 40     781.39300000       0.00000000
  4 47 1     776.97300000       0.00000000
  4 47 40     781.34100000       0.00000000