# File generated by Flopy version 3.3.5 on 03/04/2022 at 11:17:55.
BEGIN options
  READASARRAYS
  PRINT_FLOWS
END options

BEGIN period  1
  recharge
    CONSTANT       0.00114155
END period  1

