# File generated by Flopy version 3.3.5 on 03/04/2022 at 11:17:55.
BEGIN options
END options

BEGIN griddata
  alh
    CONSTANT      10.00000000
  ath1
    CONSTANT       2.00000000
  atv
    CONSTANT       2.00000000
END griddata

