# File generated by Flopy version 3.3.5 on 03/04/2022 at 11:17:55.
BEGIN options
END options

BEGIN timing
  TDIS6  ex-gwtgwt-mt3dms-p10.tdis
END timing

BEGIN models
  gwf6  gwf-outer.nam  gwf-outer
  gwf6  gwf-inner.nam  gwf-inner
  gwt6  gwt-outer.nam  gwt-outer
  gwt6  gwt-inner.nam  gwt-inner
END models

BEGIN exchanges
  GWF6-GWF6  ex-gwtgwt-mt3dms-p10.gwfgwf  gwf-outer  gwf-inner
  GWT6-GWT6  ex-gwtgwt-mt3dms-p10.gwtgwt  gwt-outer  gwt-inner
  GWF6-GWT6  outer.gwfgwt  gwf-outer  gwt-outer
  GWF6-GWT6  inner.gwfgwt  gwf-inner  gwt-inner
END exchanges

BEGIN solutiongroup  1
  ims6  gwfsolver.ims  gwf-outer  gwf-inner
  ims6  gwtsolver.ims  gwt-outer  gwt-inner
END solutiongroup  1

