# File generated by Flopy version 3.3.5 on 03/04/2022 at 11:13:39.
BEGIN options
END options

BEGIN dimensions
  MAXBOUND  10
END dimensions

BEGIN period  1
  2 1 15       0.00000000   10000.00000000      -5.00000000
  2 2 15       0.00000000   10000.00000000      -5.00000000
  2 3 15       0.00000000   10000.00000000      -5.00000000
  2 4 15       0.00000000   10000.00000000      -5.00000000
  2 5 15       0.00000000   10000.00000000      -5.00000000
  2 6 15       0.00000000   10000.00000000      -5.00000000
  2 7 15       0.00000000   10000.00000000      -5.00000000
  2 8 15       0.00000000   10000.00000000      -5.00000000
  2 9 15       0.00000000   10000.00000000      -5.00000000
  2 10 15       0.00000000   10000.00000000      -5.00000000
END period  1

