# File generated by Flopy version 3.3.5 on 03/04/2022 at 11:13:39.
BEGIN options
END options

BEGIN dimensions
  MAXBOUND  2
END dimensions

BEGIN period  2
  2 3 4  -35000.00000000
  2 8 4  -35000.00000000
END period  2

