# File generated by Flopy version 3.3.5 on 03/04/2022 at 11:13:39.
BEGIN options
  REWET  wetfct       1.00000000  iwetit  1  ihdwet  0
  SAVE_SPECIFIC_DISCHARGE
END options

BEGIN griddata
  icelltype  LAYERED
    CONSTANT  1
    CONSTANT  0
  k  LAYERED
    CONSTANT      10.00000000
    CONSTANT       5.00000000
  k33
    CONSTANT       0.10000000
  wetdry  LAYERED
    INTERNAL  FACTOR  1.0
           2.00000000       2.00000000       2.00000000       2.00000000       2.00000000       2.00000000       2.00000000       2.00000000      -2.00000000      -2.00000000      -2.00000000      -2.00000000      -2.00000000      -2.00000000      -2.00000000
           2.00000000       2.00000000       2.00000000       2.00000000       2.00000000       2.00000000       2.00000000       2.00000000      -2.00000000      -2.00000000      -2.00000000      -2.00000000      -2.00000000      -2.00000000      -2.00000000
           2.00000000       2.00000000       2.00000000      -2.00000000       2.00000000       2.00000000       2.00000000       2.00000000      -2.00000000      -2.00000000      -2.00000000      -2.00000000      -2.00000000      -2.00000000      -2.00000000
           2.00000000       2.00000000       2.00000000       2.00000000       2.00000000       2.00000000       2.00000000       2.00000000      -2.00000000      -2.00000000      -2.00000000      -2.00000000      -2.00000000      -2.00000000      -2.00000000
           2.00000000       2.00000000       2.00000000       2.00000000       2.00000000       2.00000000       2.00000000       2.00000000      -2.00000000      -2.00000000      -2.00000000      -2.00000000      -2.00000000      -2.00000000      -2.00000000
           2.00000000       2.00000000       2.00000000       2.00000000       2.00000000       2.00000000       2.00000000       2.00000000      -2.00000000      -2.00000000      -2.00000000      -2.00000000      -2.00000000      -2.00000000      -2.00000000
           2.00000000       2.00000000       2.00000000       2.00000000       2.00000000       2.00000000       2.00000000       2.00000000      -2.00000000      -2.00000000      -2.00000000      -2.00000000      -2.00000000      -2.00000000      -2.00000000
           2.00000000       2.00000000       2.00000000      -2.00000000       2.00000000       2.00000000       2.00000000       2.00000000      -2.00000000      -2.00000000      -2.00000000      -2.00000000      -2.00000000      -2.00000000      -2.00000000
           2.00000000       2.00000000       2.00000000       2.00000000       2.00000000       2.00000000       2.00000000       2.00000000      -2.00000000      -2.00000000      -2.00000000      -2.00000000      -2.00000000      -2.00000000      -2.00000000
           2.00000000       2.00000000       2.00000000       2.00000000       2.00000000       2.00000000       2.00000000       2.00000000      -2.00000000      -2.00000000      -2.00000000      -2.00000000      -2.00000000      -2.00000000      -2.00000000
    CONSTANT       0.00000000
END griddata

