# File generated by Flopy version 3.3.5 on 03/04/2022 at 11:13:39.
BEGIN options
  BUDGET  FILEOUT  ex-gwf-bcf2ss.cbc
  HEAD  FILEOUT  ex-gwf-bcf2ss.hds
END options

BEGIN period  1
  SAVE  HEAD  ALL
  SAVE  BUDGET  ALL
END period  1

