# UZF package for MODFLOW-NWT generated by Flopy 3.3.5
OPTIONS
SPECIFYTHTR
SPECIFYTHTI
END
         3         2         0         0         0         0        25        80         0   1.000000E-01 #NUZTOP IUZFOPT IRUNFLG IETFLG ipakcb IUZFCB2 NTRAIL NSETS NUZGAGES                                
INTERNAL               1    (40I10) -1 #iuzfbnd                       
         0         1         1         1         1         1         1         1         1         1         1         1         1         1         1         1         1         1         1         1         1         1         1         1         1         1         1         1         1         1         1         1         1         1         1         1         1         1         1         0
CONSTANT    4.000000E+00                           #eps                           
CONSTANT    4.500000E-01                           #thts                          
CONSTANT    1.000000E-01                           #thtr                          
CONSTANT    1.050000E-01                           #thti                          
         1 #finf for stress period 1
INTERNAL               1  (40E15.6) -1 #finf1                         
   0.000000E+00   1.000000E-01   1.000000E-01   1.000000E-01   1.000000E-01   1.000000E-01   1.000000E-01   1.000000E-01   1.000000E-01   1.000000E-01   1.000000E-01   1.000000E-01   1.000000E-01   1.000000E-01   1.000000E-01   1.000000E-01   1.000000E-01   1.000000E-01   1.000000E-01   1.000000E-01   1.000000E-01   1.000000E-01   1.000000E-01   1.000000E-01   1.000000E-01   1.000000E-01   1.000000E-01   1.000000E-01   1.000000E-01   1.000000E-01   1.000000E-01   1.000000E-01   1.000000E-01   1.000000E-01   1.000000E-01   1.000000E-01   1.000000E-01   1.000000E-01   1.000000E-01   0.000000E+00
