# File generated by Flopy version 3.3.5 on 03/04/2022 at 11:18:35.
BEGIN options
  auxiliary  CONCENTRATION
  PRINT_INPUT
  PRINT_FLOWS
END options

BEGIN dimensions
  MAXBOUND  1
END dimensions

BEGIN period  1
  7 8 3       0.50000000     100.00000000
END period  1

