# File generated by Flopy version 3.3.5 on 03/04/2022 at 11:18:35.
BEGIN options
  auxiliary  CONCENTRATION
END options

BEGIN dimensions
  MAXBOUND  240
END dimensions

BEGIN period  1
  1 1 1      13.33333333       0.00000000
  1 1 21       0.00000000       0.00000000
  1 2 1      13.33333333       0.00000000
  1 2 21       0.00000000       0.00000000
  1 3 1      13.33333333       0.00000000
  1 3 21       0.00000000       0.00000000
  1 4 1      13.33333333       0.00000000
  1 4 21       0.00000000       0.00000000
  1 5 1      13.33333333       0.00000000
  1 5 21       0.00000000       0.00000000
  1 6 1      13.33333333       0.00000000
  1 6 21       0.00000000       0.00000000
  1 7 1      13.33333333       0.00000000
  1 7 21       0.00000000       0.00000000
  1 8 1      13.33333333       0.00000000
  1 8 21       0.00000000       0.00000000
  1 9 1      13.33333333       0.00000000
  1 9 21       0.00000000       0.00000000
  1 10 1      13.33333333       0.00000000
  1 10 21       0.00000000       0.00000000
  1 11 1      13.33333333       0.00000000
  1 11 21       0.00000000       0.00000000
  1 12 1      13.33333333       0.00000000
  1 12 21       0.00000000       0.00000000
  1 13 1      13.33333333       0.00000000
  1 13 21       0.00000000       0.00000000
  1 14 1      13.33333333       0.00000000
  1 14 21       0.00000000       0.00000000
  1 15 1      13.33333333       0.00000000
  1 15 21       0.00000000       0.00000000
  2 1 1      13.33333333       0.00000000
  2 1 21       0.00000000       0.00000000
  2 2 1      13.33333333       0.00000000
  2 2 21       0.00000000       0.00000000
  2 3 1      13.33333333       0.00000000
  2 3 21       0.00000000       0.00000000
  2 4 1      13.33333333       0.00000000
  2 4 21       0.00000000       0.00000000
  2 5 1      13.33333333       0.00000000
  2 5 21       0.00000000       0.00000000
  2 6 1      13.33333333       0.00000000
  2 6 21       0.00000000       0.00000000
  2 7 1      13.33333333       0.00000000
  2 7 21       0.00000000       0.00000000
  2 8 1      13.33333333       0.00000000
  2 8 21       0.00000000       0.00000000
  2 9 1      13.33333333       0.00000000
  2 9 21       0.00000000       0.00000000
  2 10 1      13.33333333       0.00000000
  2 10 21       0.00000000       0.00000000
  2 11 1      13.33333333       0.00000000
  2 11 21       0.00000000       0.00000000
  2 12 1      13.33333333       0.00000000
  2 12 21       0.00000000       0.00000000
  2 13 1      13.33333333       0.00000000
  2 13 21       0.00000000       0.00000000
  2 14 1      13.33333333       0.00000000
  2 14 21       0.00000000       0.00000000
  2 15 1      13.33333333       0.00000000
  2 15 21       0.00000000       0.00000000
  3 1 1      13.33333333       0.00000000
  3 1 21       0.00000000       0.00000000
  3 2 1      13.33333333       0.00000000
  3 2 21       0.00000000       0.00000000
  3 3 1      13.33333333       0.00000000
  3 3 21       0.00000000       0.00000000
  3 4 1      13.33333333       0.00000000
  3 4 21       0.00000000       0.00000000
  3 5 1      13.33333333       0.00000000
  3 5 21       0.00000000       0.00000000
  3 6 1      13.33333333       0.00000000
  3 6 21       0.00000000       0.00000000
  3 7 1      13.33333333       0.00000000
  3 7 21       0.00000000       0.00000000
  3 8 1      13.33333333       0.00000000
  3 8 21       0.00000000       0.00000000
  3 9 1      13.33333333       0.00000000
  3 9 21       0.00000000       0.00000000
  3 10 1      13.33333333       0.00000000
  3 10 21       0.00000000       0.00000000
  3 11 1      13.33333333       0.00000000
  3 11 21       0.00000000       0.00000000
  3 12 1      13.33333333       0.00000000
  3 12 21       0.00000000       0.00000000
  3 13 1      13.33333333       0.00000000
  3 13 21       0.00000000       0.00000000
  3 14 1      13.33333333       0.00000000
  3 14 21       0.00000000       0.00000000
  3 15 1      13.33333333       0.00000000
  3 15 21       0.00000000       0.00000000
  4 1 1      13.33333333       0.00000000
  4 1 21       0.00000000       0.00000000
  4 2 1      13.33333333       0.00000000
  4 2 21       0.00000000       0.00000000
  4 3 1      13.33333333       0.00000000
  4 3 21       0.00000000       0.00000000
  4 4 1      13.33333333       0.00000000
  4 4 21       0.00000000       0.00000000
  4 5 1      13.33333333       0.00000000
  4 5 21       0.00000000       0.00000000
  4 6 1      13.33333333       0.00000000
  4 6 21       0.00000000       0.00000000
  4 7 1      13.33333333       0.00000000
  4 7 21       0.00000000       0.00000000
  4 8 1      13.33333333       0.00000000
  4 8 21       0.00000000       0.00000000
  4 9 1      13.33333333       0.00000000
  4 9 21       0.00000000       0.00000000
  4 10 1      13.33333333       0.00000000
  4 10 21       0.00000000       0.00000000
  4 11 1      13.33333333       0.00000000
  4 11 21       0.00000000       0.00000000
  4 12 1      13.33333333       0.00000000
  4 12 21       0.00000000       0.00000000
  4 13 1      13.33333333       0.00000000
  4 13 21       0.00000000       0.00000000
  4 14 1      13.33333333       0.00000000
  4 14 21       0.00000000       0.00000000
  4 15 1      13.33333333       0.00000000
  4 15 21       0.00000000       0.00000000
  5 1 1      13.33333333       0.00000000
  5 1 21       0.00000000       0.00000000
  5 2 1      13.33333333       0.00000000
  5 2 21       0.00000000       0.00000000
  5 3 1      13.33333333       0.00000000
  5 3 21       0.00000000       0.00000000
  5 4 1      13.33333333       0.00000000
  5 4 21       0.00000000       0.00000000
  5 5 1      13.33333333       0.00000000
  5 5 21       0.00000000       0.00000000
  5 6 1      13.33333333       0.00000000
  5 6 21       0.00000000       0.00000000
  5 7 1      13.33333333       0.00000000
  5 7 21       0.00000000       0.00000000
  5 8 1      13.33333333       0.00000000
  5 8 21       0.00000000       0.00000000
  5 9 1      13.33333333       0.00000000
  5 9 21       0.00000000       0.00000000
  5 10 1      13.33333333       0.00000000
  5 10 21       0.00000000       0.00000000
  5 11 1      13.33333333       0.00000000
  5 11 21       0.00000000       0.00000000
  5 12 1      13.33333333       0.00000000
  5 12 21       0.00000000       0.00000000
  5 13 1      13.33333333       0.00000000
  5 13 21       0.00000000       0.00000000
  5 14 1      13.33333333       0.00000000
  5 14 21       0.00000000       0.00000000
  5 15 1      13.33333333       0.00000000
  5 15 21       0.00000000       0.00000000
  6 1 1      13.33333333       0.00000000
  6 1 21       0.00000000       0.00000000
  6 2 1      13.33333333       0.00000000
  6 2 21       0.00000000       0.00000000
  6 3 1      13.33333333       0.00000000
  6 3 21       0.00000000       0.00000000
  6 4 1      13.33333333       0.00000000
  6 4 21       0.00000000       0.00000000
  6 5 1      13.33333333       0.00000000
  6 5 21       0.00000000       0.00000000
  6 6 1      13.33333333       0.00000000
  6 6 21       0.00000000       0.00000000
  6 7 1      13.33333333       0.00000000
  6 7 21       0.00000000       0.00000000
  6 8 1      13.33333333       0.00000000
  6 8 21       0.00000000       0.00000000
  6 9 1      13.33333333       0.00000000
  6 9 21       0.00000000       0.00000000
  6 10 1      13.33333333       0.00000000
  6 10 21       0.00000000       0.00000000
  6 11 1      13.33333333       0.00000000
  6 11 21       0.00000000       0.00000000
  6 12 1      13.33333333       0.00000000
  6 12 21       0.00000000       0.00000000
  6 13 1      13.33333333       0.00000000
  6 13 21       0.00000000       0.00000000
  6 14 1      13.33333333       0.00000000
  6 14 21       0.00000000       0.00000000
  6 15 1      13.33333333       0.00000000
  6 15 21       0.00000000       0.00000000
  7 1 1      13.33333333       0.00000000
  7 1 21       0.00000000       0.00000000
  7 2 1      13.33333333       0.00000000
  7 2 21       0.00000000       0.00000000
  7 3 1      13.33333333       0.00000000
  7 3 21       0.00000000       0.00000000
  7 4 1      13.33333333       0.00000000
  7 4 21       0.00000000       0.00000000
  7 5 1      13.33333333       0.00000000
  7 5 21       0.00000000       0.00000000
  7 6 1      13.33333333       0.00000000
  7 6 21       0.00000000       0.00000000
  7 7 1      13.33333333       0.00000000
  7 7 21       0.00000000       0.00000000
  7 8 1      13.33333333       0.00000000
  7 8 21       0.00000000       0.00000000
  7 9 1      13.33333333       0.00000000
  7 9 21       0.00000000       0.00000000
  7 10 1      13.33333333       0.00000000
  7 10 21       0.00000000       0.00000000
  7 11 1      13.33333333       0.00000000
  7 11 21       0.00000000       0.00000000
  7 12 1      13.33333333       0.00000000
  7 12 21       0.00000000       0.00000000
  7 13 1      13.33333333       0.00000000
  7 13 21       0.00000000       0.00000000
  7 14 1      13.33333333       0.00000000
  7 14 21       0.00000000       0.00000000
  7 15 1      13.33333333       0.00000000
  7 15 21       0.00000000       0.00000000
  8 1 1      13.33333333       0.00000000
  8 1 21       0.00000000       0.00000000
  8 2 1      13.33333333       0.00000000
  8 2 21       0.00000000       0.00000000
  8 3 1      13.33333333       0.00000000
  8 3 21       0.00000000       0.00000000
  8 4 1      13.33333333       0.00000000
  8 4 21       0.00000000       0.00000000
  8 5 1      13.33333333       0.00000000
  8 5 21       0.00000000       0.00000000
  8 6 1      13.33333333       0.00000000
  8 6 21       0.00000000       0.00000000
  8 7 1      13.33333333       0.00000000
  8 7 21       0.00000000       0.00000000
  8 8 1      13.33333333       0.00000000
  8 8 21       0.00000000       0.00000000
  8 9 1      13.33333333       0.00000000
  8 9 21       0.00000000       0.00000000
  8 10 1      13.33333333       0.00000000
  8 10 21       0.00000000       0.00000000
  8 11 1      13.33333333       0.00000000
  8 11 21       0.00000000       0.00000000
  8 12 1      13.33333333       0.00000000
  8 12 21       0.00000000       0.00000000
  8 13 1      13.33333333       0.00000000
  8 13 21       0.00000000       0.00000000
  8 14 1      13.33333333       0.00000000
  8 14 21       0.00000000       0.00000000
  8 15 1      13.33333333       0.00000000
  8 15 21       0.00000000       0.00000000
END period  1

