# File generated by Flopy version 3.3.5 on 03/04/2022 at 11:17:36.
BEGIN options
  DIGITS  10
  PRINT_INPUT
END options

BEGIN continuous  FILEOUT  ex-gwf-sfr-p01.sfr.obs.csv
  r01_stage  stage  4
  r02_stage  stage  15
  r03_stage  stage  27
  r04_stage  stage  36
  r01_flow  downstream-flow  4
  r02_flow  downstream-flow  15
  r03_flow  downstream-flow  27
  r04_flow  downstream-flow  36
END continuous  FILEOUT  ex-gwf-sfr-p01.sfr.obs.csv

