# File generated by Flopy version 3.3.5 on 03/04/2022 at 11:17:36.
BEGIN options
  SAVE_FLOWS
  NEWTON
END options

BEGIN packages
  DIS6  .\ex-gwf-sfr-p01.dis  dis
  NPF6  .\ex-gwf-sfr-p01.npf  npf
  STO6  .\ex-gwf-sfr-p01.sto  sto
  IC6  .\ex-gwf-sfr-p01.ic  ic
  GHB6  .\ex-gwf-sfr-p01.ghb  ghb_0
  WEL6  .\ex-gwf-sfr-p01.wel  wel_0
  RCH6  .\ex-gwf-sfr-p01.rcha  rcha_0
  EVT6  .\ex-gwf-sfr-p01.evta  evta_0
  SFR6  .\ex-gwf-sfr-p01.sfr  sfr_0
  OC6  .\ex-gwf-sfr-p01.oc  oc
END packages

