# File generated by Flopy version 3.3.5 on 03/04/2022 at 11:17:36.
BEGIN options
  READASARRAYS
END options

BEGIN period  1
  surface
    INTERNAL  FACTOR  1.0
      1110.00000000    1110.00000000       0.00000000       0.00000000       0.00000000       0.00000000       0.00000000       0.00000000       0.00000000       0.00000000
      1110.00000000    1105.00000000    1110.00000000       0.00000000       0.00000000    1100.00000000    1100.00000000    1110.00000000       0.00000000       0.00000000
         0.00000000    1100.00000000    1095.00000000    1088.00000000    1085.00000000    1085.00000000    1085.00000000    1090.00000000       0.00000000       0.00000000
      1105.00000000    1100.00000000    1090.00000000    1083.00000000    1078.00000000    1075.00000000    1080.00000000    1085.00000000    1100.00000000       0.00000000
      1105.00000000    1090.00000000    1080.00000000    1077.00000000    1074.00000000    1073.00000000    1074.00000000    1078.00000000    1080.00000000    1085.00000000
      1100.00000000    1080.00000000    1075.00000000    1072.00000000    1071.00000000    1069.00000000    1070.00000000    1075.00000000    1080.00000000    1100.00000000
      1100.00000000    1080.00000000    1070.00000000    1065.00000000    1065.00000000    1065.00000000    1065.00000000    1070.00000000    1090.00000000       0.00000000
         0.00000000    1075.00000000    1065.00000000    1059.00000000    1059.00000000    1058.00000000    1063.00000000    1070.00000000    1090.00000000       0.00000000
         0.00000000    1065.00000000    1055.00000000    1053.00000000    1053.00000000    1052.00000000    1055.00000000    1065.00000000    1090.00000000       0.00000000
         0.00000000    1060.00000000    1046.00000000    1046.00000000    1046.00000000    1046.00000000    1044.00000000    1060.00000000    1088.00000000    1100.00000000
         0.00000000    1045.00000000    1039.00000000    1040.00000000    1041.00000000    1042.00000000    1040.00000000    1050.00000000    1075.00000000       0.00000000
      1027.00000000    1028.00000000    1028.00000000    1032.00000000    1032.00000000    1033.00000000    1032.00000000    1040.00000000    1060.00000000       0.00000000
       997.00000000    1004.00000000    1008.00000000    1014.00000000    1020.00000000    1027.00000000    1032.00000000    1038.00000000    1050.00000000       0.00000000
         0.00000000    1030.00000000    1040.00000000    1045.00000000    1050.00000000    1050.00000000    1050.00000000    1050.00000000    1044.00000000       0.00000000
         0.00000000       0.00000000    1080.00000000    1080.00000000    1080.00000000    1080.00000000       0.00000000       0.00000000       0.00000000       0.00000000
  rate
    CONSTANT  9.50000000E-08
  depth
    CONSTANT      15.00000000
END period  1

