# File generated by Flopy version 3.3.5 on 03/04/2022 at 11:17:36.
BEGIN options
  OBS6  FILEIN  ex-gwf-sfr-p01.sfr.obs
  UNIT_CONVERSION       1.48600000
END options

BEGIN dimensions
  NREACHES  36
END dimensions

BEGIN packagedata
  1  1 1 1    4500.00000000      12.00000000  8.67678960E-04    1093.04800000       3.00000000  3.00000000E-05  0.03  1       1.00000000  0
  2  1 2 2    7000.00000000      12.00000000  8.67678960E-04    1088.05900000       3.00000000  3.00000000E-05  0.03  2       1.00000000  0
  3  1 3 3    6000.00000000      12.00000000  8.67678960E-04    1082.41900000       3.00000000  3.00000000E-05  0.03  2       1.00000000  0
  4  1 3 4    5550.00000000      12.00000000  8.67678960E-04    1077.40800000       3.00000000  3.00000000E-05  0.03  3       1.00000000  1
  5  1 4 5    6500.00000000      12.00000000  9.43396240E-04    1071.93400000       3.00000000  3.00000000E-05  0.03  2       1.00000000  0
  6  1 5 6    5000.00000000      12.00000000  9.43396240E-04    1066.50900000       3.00000000  3.00000000E-05  0.03  2       1.00000000  0
  7  1 6 6    5000.00000000      12.00000000  9.43396240E-04    1061.79200000       3.00000000  3.00000000E-05  0.03  2       1.00000000  0
  8  1 7 6    5000.00000000      12.00000000  9.43396240E-04    1057.07500000       3.00000000  3.00000000E-05  0.03  2       1.00000000  0
  9  1 8 6    5000.00000000      12.00000000  9.43396240E-04    1052.35900000       3.00000000  3.00000000E-05  0.03  2       1.00000000  0
  10  1 3 5    5000.00000000      10.00000000  5.45454560E-04    1073.63600000       2.00000000  3.00000000E-05  0.03  2       0.00000000  0
  11  1 3 6    5000.00000000      10.00000000  5.45454560E-04    1070.90900000       2.00000000  3.00000000E-05  0.03  2       1.00000000  0
  12  1 3 7    4500.00000000      10.00000000  5.45454560E-04    1068.31800000       2.00000000  3.00000000E-05  0.03  2       1.00000000  0
  13  1 4 8    6000.00000000      10.00000000  5.45454560E-04    1065.45500000       2.00000000  3.00000000E-05  0.03  2       1.00000000  0
  14  1 5 8    5000.00000000      10.00000000  5.45454560E-04    1062.45500000       2.00000000  3.00000000E-05  0.03  2       1.00000000  0
  15  1 6 8    2000.00000000      10.00000000  5.45454560E-04    1060.54500000       2.00000000  3.00000000E-05  0.03  2       1.00000000  0
  16  1 5 10    2500.00000000      10.00000000       0.00181818    1077.72700000       3.00000000  3.00000000E-05  0.03  1       1.00000000  0
  17  1 5 9    5000.00000000      10.00000000       0.00181818    1070.90900000       3.00000000  3.00000000E-05  0.03  2       1.00000000  0
  18  1 6 8    3500.00000000      10.00000000       0.00181818    1063.18200000       3.00000000  3.00000000E-05  0.03  2       1.00000000  0
  19  1 6 8    4000.00000000      15.00000000       0.00100000    1058.00000000       3.00000000  3.00000000E-05  0.03  3       1.00000000  0
  20  1 7 7    5000.00000000      15.00000000       0.00100000    1053.50000000       3.00000000  3.00000000E-05  0.03  2       1.00000000  0
  21  1 8 7    3500.00000000      15.00000000       0.00100000    1049.25000000       3.00000000  3.00000000E-05  0.03  2       1.00000000  0
  22  1 8 6    2500.00000000      15.00000000       0.00100000    1046.25000000       3.00000000  3.00000000E-05  0.03  2       1.00000000  0
  23  1 9 6    5000.00000000      12.00000000  9.09090920E-04    1042.72700000       3.00000000  3.00000000E-05  0.03  3       1.00000000  0
  24  1 10 7    5000.00000000      12.00000000  9.09090920E-04    1038.18200000       3.00000000  3.00000000E-05  0.03  2       1.00000000  0
  25  1 11 7    5000.00000000      12.00000000  9.09090920E-04    1033.63600000       3.00000000  3.00000000E-05  0.03  2       1.00000000  0
  26  1 12 7    5000.00000000      12.00000000  9.09090920E-04    1029.09100000       3.00000000  3.00000000E-05  0.03  2       1.00000000  0
  27  1 13 7    2000.00000000      12.00000000  9.09090920E-04    1025.90900000       3.00000000  3.00000000E-05  0.03  2       1.00000000  0
  28  1 14 9    5000.00000000      55.00000000  9.67741940E-04    1037.58100000       3.00000000  6.00000000E-05  0.025  1       1.00000000  0
  29  1 13 8    5500.00000000      55.00000000  9.67741940E-04    1032.50000000       3.00000000  6.00000000E-05  0.025  2       1.00000000  0
  30  1 13 7    5000.00000000      55.00000000  9.67741940E-04    1027.41900000       3.00000000  6.00000000E-05  0.025  2       1.00000000  0
  31  1 13 6    5000.00000000      40.00000000       0.00125000    1021.87500000       3.00000000  6.00000000E-05  0.025  3       1.00000000  0
  32  1 13 5    5000.00000000      40.00000000       0.00125000    1015.62500000       3.00000000  6.00000000E-05  0.025  2       1.00000000  0
  33  1 13 4    5000.00000000      40.00000000       0.00125000    1009.37500000       3.00000000  6.00000000E-05  0.025  2       1.00000000  0
  34  1 13 3    5000.00000000      40.00000000       0.00125000    1003.12500000       3.00000000  6.00000000E-05  0.025  2       1.00000000  0
  35  1 13 2    5000.00000000      40.00000000       0.00125000     996.87500000       3.00000000  6.00000000E-05  0.025  2       1.00000000  0
  36  1 13 1    3000.00000000      40.00000000       0.00125000     991.87500000       3.00000000  6.00000000E-05  0.025  1       1.00000000  0
END packagedata

BEGIN connectiondata
  1  -2
  2  1  -3
  3  2  -4
  4  3  -5  -10
  5  4  -6
  6  5  -7
  7  6  -8
  8  7  -9
  9  8  -23
  10  4  -11
  11  10  -12
  12  11  -13
  13  12  -14
  14  13  -15
  15  14  -19
  16  -17
  17  16  -18
  18  17  -19
  19  15  18  -20
  20  19  -21
  21  20  -22
  22  21  -23
  23  9  22  -24
  24  23  -25
  25  24  -26
  26  25  -27
  27  26  -31
  28  -29
  29  28  -30
  30  29  -31
  31  27  30  -32
  32  31  -33
  33  32  -34
  34  33  -35
  35  34  -36
  36  35
END connectiondata

BEGIN diversions
  4  1  10  UPTO
END diversions

BEGIN period  1
  1  inflow  25.0
  16  inflow  10.0
  28  inflow  150.0
  4  diversion  1      10.00000000
  10  status  simple
  11  status  simple
  12  status  simple
  13  status  simple
  14  status  simple
  15  status  simple
  10  stage  1075.545
  11  stage  1072.636
  12  stage  1069.873
  13  stage  1066.819
  14  stage  1063.619
  15  stage  1061.581
END period  1

