# File generated by Flopy version 3.3.5 on 03/04/2022 at 11:17:36.
BEGIN options
  LENGTH_UNITS  feet
END options

BEGIN dimensions
  NLAY  1
  NROW  15
  NCOL  10
END dimensions

BEGIN griddata
  delr
    CONSTANT    5000.00000000
  delc
    CONSTANT    5000.00000000
  top
    INTERNAL  FACTOR  1.0
      1105.00000000    1105.00000000       0.00000000       0.00000000       0.00000000       0.00000000       0.00000000       0.00000000       0.00000000       0.00000000
      1105.00000000    1095.00000000    1105.00000000       0.00000000       0.00000000    1100.00000000    1100.00000000    1110.00000000       0.00000000       0.00000000
         0.00000000    1100.00000000    1085.00000000    1080.00000000    1078.00000000    1076.00000000    1073.00000000    1090.00000000       0.00000000       0.00000000
      1110.00000000    1100.00000000    1090.00000000    1085.00000000    1076.00000000    1080.00000000    1080.00000000    1070.00000000    1100.00000000       0.00000000
      1110.00000000    1100.00000000    1085.00000000    1080.00000000    1078.00000000    1074.00000000    1077.00000000    1066.00000000    1075.00000000    1080.00000000
      1105.00000000    1095.00000000    1080.00000000    1077.00000000    1073.00000000    1069.00000000    1070.00000000    1063.00000000    1085.00000000    1095.00000000
      1105.00000000    1090.00000000    1075.00000000    1072.00000000    1070.00000000    1065.00000000    1065.00000000    1069.00000000    1090.00000000       0.00000000
         0.00000000    1080.00000000    1070.00000000    1068.00000000    1063.00000000    1060.00000000    1063.00000000    1067.00000000    1090.00000000       0.00000000
         0.00000000    1075.00000000    1065.00000000    1062.00000000    1058.00000000    1052.00000000    1055.00000000    1065.00000000    1090.00000000       0.00000000
         0.00000000    1070.00000000    1060.00000000    1055.00000000    1046.00000000    1046.00000000    1044.00000000    1060.00000000    1088.00000000    1100.00000000
         0.00000000    1055.00000000    1050.00000000    1045.00000000    1041.00000000    1042.00000000    1040.00000000    1050.00000000    1075.00000000       0.00000000
      1027.00000000    1028.00000000    1028.00000000    1032.00000000    1032.00000000    1033.00000000    1032.00000000    1040.00000000    1060.00000000       0.00000000
       997.00000000    1004.00000000    1008.00000000    1014.00000000    1020.00000000    1027.00000000    1032.00000000    1038.00000000    1050.00000000       0.00000000
         0.00000000    1030.00000000    1040.00000000    1045.00000000    1050.00000000    1050.00000000    1050.00000000    1050.00000000    1044.00000000       0.00000000
         0.00000000       0.00000000    1080.00000000    1080.00000000    1080.00000000    1080.00000000       0.00000000       0.00000000       0.00000000       0.00000000
  botm
    INTERNAL  FACTOR  1.0
      1000.00000000    1000.00000000       0.00000000       0.00000000       0.00000000       0.00000000       0.00000000       0.00000000       0.00000000       0.00000000
      1000.00000000     900.00000000     900.00000000       0.00000000       0.00000000     950.00000000     950.00000000     950.00000000       0.00000000       0.00000000
         0.00000000     850.00000000     670.00000000     680.00000000     680.00000000     770.00000000     770.00000000     890.00000000       0.00000000       0.00000000
       925.00000000     850.00000000     650.00000000     650.00000000     650.00000000     680.00000000     740.00000000     850.00000000     950.00000000       0.00000000
       925.00000000     800.00000000     650.00000000     600.00000000     600.00000000     600.00000000     650.00000000     720.00000000     850.00000000     950.00000000
       925.00000000     800.00000000     650.00000000     600.00000000     550.00000000     600.00000000     650.00000000     720.00000000     850.00000000     970.00000000
       925.00000000     800.00000000     650.00000000     600.00000000     550.00000000     600.00000000     650.00000000     720.00000000     950.00000000       0.00000000
         0.00000000     850.00000000     700.00000000     650.00000000     570.00000000     600.00000000     700.00000000     850.00000000     950.00000000       0.00000000
         0.00000000     850.00000000     700.00000000     650.00000000     540.00000000     580.00000000     700.00000000     850.00000000     950.00000000       0.00000000
         0.00000000     850.00000000     700.00000000     630.00000000     530.00000000     580.00000000     650.00000000     800.00000000     900.00000000     950.00000000
         0.00000000     850.00000000     700.00000000     620.00000000     580.00000000     620.00000000     700.00000000     800.00000000     900.00000000       0.00000000
       900.00000000     830.00000000     710.00000000     640.00000000     600.00000000     650.00000000     700.00000000     800.00000000     900.00000000       0.00000000
       900.00000000     810.00000000     750.00000000     700.00000000     650.00000000     700.00000000     750.00000000     800.00000000     900.00000000       0.00000000
         0.00000000     950.00000000     850.00000000     850.00000000     850.00000000     850.00000000     850.00000000     850.00000000     850.00000000       0.00000000
         0.00000000       0.00000000     950.00000000     950.00000000     950.00000000     950.00000000       0.00000000       0.00000000       0.00000000       0.00000000
  idomain
    INTERNAL  FACTOR  1
    1  1  0  0  0  0  0  0  0  0
    2  1  1  0  0  2  2  2  0  0
    0  2  1  1  2  2  2  2  0  0
    2  2  2  1  1  1  2  2  2  0
    2  2  2  1  1  1  1  1  1  1
    2  2  2  1  1  1  1  1  2  2
    2  2  2  1  1  1  1  1  2  0
    0  2  2  1  1  1  1  2  2  0
    0  2  2  1  1  1  1  2  2  0
    0  2  2  1  1  1  1  2  2  2
    0  2  2  1  1  1  1  2  2  0
    2  2  1  1  1  1  1  2  2  0
    1  1  1  1  1  1  1  1  1  0
    0  2  2  2  2  2  2  2  1  0
    0  0  2  2  2  2  0  0  0  0
END griddata

