# File generated by Flopy version 3.3.5 on 03/04/2022 at 11:18:40.
BEGIN options
END options

BEGIN griddata
  alh
    CONSTANT      20.00000000
  ath1
    CONSTANT       4.00000000
END griddata

