# File generated by Flopy version 3.3.5 on 03/04/2022 at 11:18:53.
BEGIN options
  BOUNDNAMES
  PRINT_STAGE
  PRINT_FLOWS
  STAGE  FILEOUT  flow.sfr.bin
  BUDGET  FILEOUT  flow.sfr.bud
  OBS6  FILEIN  flow.sfr.obs
  MOVER
  UNIT_CONVERSION  1.28390000E+05
END options

BEGIN dimensions
  NREACHES  38
END dimensions

BEGIN packagedata
  1  1 1 23     400.00000000       5.00000000       0.00181818      48.63636364       1.00000000     100.00000000  0.03  1       1.00000000  0  SEG1
  2  1 2 23     200.00000000       5.00000000       0.00181818      48.09090909       1.00000000     100.00000000  0.03  2       1.00000000  0  SEG1
  3  1 2 22     400.00000000       5.00000000       0.00181818      47.54545455       1.00000000     100.00000000  0.03  2       1.00000000  0  SEG1
  4  1 3 21     400.00000000       5.00000000       0.00181818      46.81818182       1.00000000     100.00000000  0.03  2       1.00000000  0  SEG1
  5  1 4 20     400.00000000       5.00000000       0.00181818      46.09090909       1.00000000     100.00000000  0.03  2       1.00000000  0  SEG1
  6  1 5 20     400.00000000       5.00000000       0.00181818      45.36363636       1.00000000     100.00000000  0.03  1       1.00000000  0  SEG1
  7  1 17 18     400.00000000       5.00000000       0.00218750      44.06250000       1.00000000     100.00000000  0.03  1       1.00000000  0  SEG2
  8  1 18 18     400.00000000       5.00000000       0.00218750      43.18750000       1.00000000     100.00000000  0.03  2       1.00000000  0  SEG2
  9  1 19 18     400.00000000       5.00000000       0.00218750      42.31250000       1.00000000     100.00000000  0.03  2       1.00000000  0  SEG2
  10  1 20 17     400.00000000       5.00000000       0.00218750      41.43750000       1.00000000     100.00000000  0.03  2       1.00000000  0  SEG2
  11  1 21 17     400.00000000       5.00000000       0.00218750      40.56250000       1.00000000     100.00000000  0.03  2       1.00000000  0  SEG2
  12  1 22 17     400.00000000       5.00000000       0.00218750      39.68750000       1.00000000     100.00000000  0.03  2       1.00000000  0  SEG2
  13  1 23 16     400.00000000       5.00000000       0.00218750      38.81250000       1.00000000     100.00000000  0.03  2       1.00000000  0  SEG2
  14  1 24 16     400.00000000       5.00000000       0.00218750      37.93750000       1.00000000     100.00000000  0.03  2       1.00000000  0  SEG2
  15  1 25 16     400.00000000       5.00000000       0.00218750      37.06250000       1.00000000     100.00000000  0.03  2       1.00000000  0  SEG2
  16  1 26 16     400.00000000       5.00000000       0.00218750      36.18750000       1.00000000     100.00000000  0.03  2       1.00000000  0  SEG2
  17  1 27 16     400.00000000       5.00000000       0.00218750      35.31250000       1.00000000     100.00000000  0.03  2       1.00000000  0  SEG2
  18  1 28 15     400.00000000       5.00000000       0.00218750      34.43750000       1.00000000     100.00000000  0.03  2       1.00000000  0  SEG2
  19  1 18 11     400.00000000       5.00000000       0.00170455      41.15909091       1.00000000     100.00000000  0.03  1       1.00000000  0  SEG3
  20  1 19 11     200.00000000       5.00000000       0.00170455      40.64772727       1.00000000     100.00000000  0.03  2       1.00000000  0  SEG3
  21  1 19 12     200.00000000       5.00000000       0.00170455      40.30681818       1.00000000     100.00000000  0.03  2       1.00000000  0  SEG3
  22  1 20 12     400.00000000       5.00000000       0.00170455      39.79545455       1.00000000     100.00000000  0.03  2       1.00000000  0  SEG3
  23  1 21 12     400.00000000       5.00000000       0.00170455      39.11363636       1.00000000     100.00000000  0.03  2       1.00000000  0  SEG3
  24  1 22 13     400.00000000       5.00000000       0.00170455      38.43181818       1.00000000     100.00000000  0.03  2       1.00000000  0  SEG3
  25  1 23 13     400.00000000       5.00000000       0.00170455      37.75000000       1.00000000     100.00000000  0.03  2       1.00000000  0  SEG3
  26  1 24 13     200.00000000       5.00000000       0.00170455      37.23863636       1.00000000     100.00000000  0.03  2       1.00000000  0  SEG3
  27  1 24 14     200.00000000       5.00000000       0.00170455      36.89772727       1.00000000     100.00000000  0.03  2       1.00000000  0  SEG3
  28  1 25 14     400.00000000       5.00000000       0.00170455      36.38636364       1.00000000     100.00000000  0.03  2       1.00000000  0  SEG3
  29  1 26 14     400.00000000       5.00000000       0.00170455      35.70454545       1.00000000     100.00000000  0.03  2       1.00000000  0  SEG3
  30  1 27 14     400.00000000       5.00000000       0.00170455      35.02272727       1.00000000     100.00000000  0.03  2       1.00000000  0  SEG3
  31  1 28 15     400.00000000       5.00000000       0.00170455      34.34090909       1.00000000     100.00000000  0.03  2       1.00000000  0  SEG3
  32  1 29 15     400.00000000       5.00000000       0.00242857      33.51428571       1.00000000     100.00000000  0.03  3       1.00000000  0  SEG4
  33  1 30 15     400.00000000       5.00000000       0.00242857      32.54285714       1.00000000     100.00000000  0.03  2       1.00000000  0  SEG4
  34  1 31 15     400.00000000       5.00000000       0.00242857      31.57142857       1.00000000     100.00000000  0.03  2       1.00000000  0  SEG4
  35  1 32 15     400.00000000       5.00000000       0.00242857      30.60000000       1.00000000     100.00000000  0.03  2       1.00000000  0  SEG4
  36  1 33 15     400.00000000       5.00000000       0.00242857      29.62857143       1.00000000     100.00000000  0.03  2       1.00000000  0  SEG4
  37  1 34 15     400.00000000       5.00000000       0.00242857      28.65714286       1.00000000     100.00000000  0.03  2       1.00000000  0  SEG4
  38  1 35 15     400.00000000       5.00000000       0.00242857      27.68571429       1.00000000     100.00000000  0.03  1       1.00000000  0  SEG4
END packagedata

BEGIN connectiondata
  1  -2
  2  1  -3
  3  2  -4
  4  3  -5
  5  4  -6
  6  5
  7  -8
  8  7  -9
  9  8  -10
  10  9  -11
  11  10  -12
  12  11  -13
  13  12  -14
  14  13  -15
  15  14  -16
  16  15  -17
  17  16  -18
  18  17  -32
  19  -20
  20  19  -21
  21  20  -22
  22  21  -23
  23  22  -24
  24  23  -25
  25  24  -26
  26  25  -27
  27  26  -28
  28  27  -29
  29  28  -30
  30  29  -31
  31  30  -32
  32  -33  18  31
  33  32  -34
  34  33  -35
  35  34  -36
  36  35  -37
  37  36  -38
  38  37
END connectiondata

BEGIN period  1
  1  inflow  86400
  19  inflow  8640.0
END period  1

