# File generated by Flopy version 3.3.5 on 03/04/2022 at 11:18:53.
BEGIN options
  PRINT_FLOWS
  BUDGET  FILEOUT  flow.mvr.bud
END options

BEGIN dimensions
  MAXMVR  2
  MAXPACKAGES  2
END dimensions

BEGIN packages
  SFR-1
  LAK-1
END packages

BEGIN period  1
  SFR-1  6  LAK-1  1  FACTOR       1.00000000
  LAK-1  1  SFR-1  7  FACTOR       1.00000000
END period  1

