# File generated by Flopy version 3.3.5 on 03/04/2022 at 11:18:53.
BEGIN options
  SAVE_FLOWS
END options

BEGIN packages
  DIS6  .\flow.dis  dis
  NPF6  .\flow.npf  npf
  IC6  .\flow.ic  ic
  OC6  .\flow.oc  oc
  RCH6  .\flow.rcha  rch-1
  CHD6  .\flow.chd  chd-1
  LAK6  .\flow.lak  lak-1
  SFR6  .\flow.sfr  sfr-1
  MVR6  .\flow.mvr  mvr
END packages

