# File generated by Flopy version 3.3.5 on 03/04/2022 at 11:18:53.
BEGIN options
  PRINT_OPTION  summary
END options

BEGIN nonlinear
  OUTER_DVCLOSE       0.01000000
  OUTER_MAXIMUM  1000
END nonlinear

BEGIN linear
  INNER_MAXIMUM  50
  INNER_DVCLOSE       0.01000000
  RELAXATION_FACTOR       0.99000000
END linear

