# File generated by Flopy version 3.3.5 on 03/04/2022 at 11:14:06.
BEGIN options
END options

BEGIN dimensions
  MAXBOUND  1
END dimensions

BEGIN period  1
  1 26 26      -1.00000000
END period  1

