# File generated by Flopy version 3.3.5 on 03/04/2022 at 11:17:45.
BEGIN options
  LENGTH_UNITS  feet
END options

BEGIN dimensions
  NLAY  5
  NROW  15
  NCOL  15
END dimensions

BEGIN griddata
  delr
    CONSTANT    5000.00000000
  delc
    CONSTANT    5000.00000000
  top
    CONSTANT     200.00000000
  botm  LAYERED
    CONSTANT    -150.00000000
    CONSTANT    -200.00000000
    CONSTANT    -300.00000000
    CONSTANT    -350.00000000
    CONSTANT    -450.00000000
END griddata

