# File generated by Flopy version 3.3.5 on 03/04/2022 at 11:17:45.
BEGIN options
  SAVE_FLOWS
END options

BEGIN packages
  DIS6  .\ex-gwf-twri01.dis  dis
  NPF6  .\ex-gwf-twri01.npf  npf
  IC6  .\ex-gwf-twri01.ic  ic
  CHD6  .\ex-gwf-twri01.chd  chd_0
  DRN6  .\ex-gwf-twri01.drn  drn_0
  WEL6  .\ex-gwf-twri01.wel  wel_0
  RCH6  .\ex-gwf-twri01.rcha  rcha_0
  OC6  .\ex-gwf-twri01.oc  oc
END packages

