# File generated by Flopy version 3.3.5 on 03/04/2022 at 11:17:45.
BEGIN options
END options

BEGIN dimensions
  MAXBOUND  30
END dimensions

BEGIN period  1
  1 1 1       0.00000000
  1 2 1       0.00000000
  1 3 1       0.00000000
  1 4 1       0.00000000
  1 5 1       0.00000000
  1 6 1       0.00000000
  1 7 1       0.00000000
  1 8 1       0.00000000
  1 9 1       0.00000000
  1 10 1       0.00000000
  1 11 1       0.00000000
  1 12 1       0.00000000
  1 13 1       0.00000000
  1 14 1       0.00000000
  1 15 1       0.00000000
  3 1 1       0.00000000
  3 2 1       0.00000000
  3 3 1       0.00000000
  3 4 1       0.00000000
  3 5 1       0.00000000
  3 6 1       0.00000000
  3 7 1       0.00000000
  3 8 1       0.00000000
  3 9 1       0.00000000
  3 10 1       0.00000000
  3 11 1       0.00000000
  3 12 1       0.00000000
  3 13 1       0.00000000
  3 14 1       0.00000000
  3 15 1       0.00000000
END period  1

