# File generated by Flopy version 3.3.5 on 03/04/2022 at 11:17:45.
BEGIN options
END options

BEGIN dimensions
  MAXBOUND  9
END dimensions

BEGIN period  1
  1 8 2       0.00000000       1.00000000
  1 8 3       0.00000000       1.00000000
  1 8 4      10.00000000       1.00000000
  1 8 5      20.00000000       1.00000000
  1 8 6      30.00000000       1.00000000
  1 8 7      50.00000000       1.00000000
  1 8 8      70.00000000       1.00000000
  1 8 9      90.00000000       1.00000000
  1 8 10     100.00000000       1.00000000
END period  1

