# File generated by Flopy version 3.3.5 on 03/04/2022 at 11:17:45.
BEGIN options
  TIME_UNITS  seconds
END options

BEGIN dimensions
  NPER  1
END dimensions

BEGIN perioddata
   86400.00000000  1       1.00000000
END perioddata

