# WEL package for MODFLOW-2005 generated by Flopy 3.3.5
         1         0 
         1         0 # stress period 1
         7         8         3             0.5
