# Name file for MODFLOW-2005, generated by Flopy version 3.3.5.
#xll:0.0; yll:0.0; rotation:0.0; units:meters; lenuni:2; start_datetime:1-1-1970
LIST               2  p07-mf.list
DIS               11  p07-mf.dis
BAS6              13  p07-mf.bas
LPF               15  p07-mf.lpf
WEL               20  p07-mf.wel
PCG               27  p07-mf.pcg
LMT6              30  p07-mf.lmt6
