# DIS package for MODFLOW-2005 generated by Flopy 3.3.5
         8        15        21         1         4         2
  0  0  0  0  0  0  0  0
CONSTANT    1.000000E+01                           #delr                          
CONSTANT    1.000000E+01                           #delc                          
CONSTANT    0.000000E+00                           #model_top                     
CONSTANT   -1.000000E+01                           #botm layer 1                  
CONSTANT   -2.000000E+01                           #botm layer 2                  
CONSTANT   -3.000000E+01                           #botm layer 3                  
CONSTANT   -4.000000E+01                           #botm layer 4                  
CONSTANT   -5.000000E+01                           #botm layer 5                  
CONSTANT   -6.000000E+01                           #botm layer 6                  
CONSTANT   -7.000000E+01                           #botm layer 7                  
CONSTANT   -8.000000E+01                           #botm layer 8                  
    100.000000            10  1.000000  SS 
