# LPF package for MODFLOW-2005 generated by Flopy 3.3.5
         0    -1E+30         0  
         0         0         0         0         0         0         0         0
         0         0         0         0         0         0         0         0
   1.000000E+00   1.000000E+00   1.000000E+00   1.000000E+00   1.000000E+00   1.000000E+00   1.000000E+00   1.000000E+00
         0         0         0         0         0         0         0         0
         0         0         0         0         0         0         0         0
CONSTANT    5.000000E-01                           #hk layer 1                    
CONSTANT    1.000000E+00                           #vka1                          
CONSTANT    5.000000E-01                           #hk layer 2                    
CONSTANT    1.000000E+00                           #vka2                          
CONSTANT    5.000000E-01                           #hk layer 3                    
CONSTANT    1.000000E+00                           #vka3                          
CONSTANT    5.000000E-01                           #hk layer 4                    
CONSTANT    1.000000E+00                           #vka4                          
CONSTANT    5.000000E-01                           #hk layer 5                    
CONSTANT    1.000000E+00                           #vka5                          
CONSTANT    5.000000E-01                           #hk layer 6                    
CONSTANT    1.000000E+00                           #vka6                          
CONSTANT    5.000000E-01                           #hk layer 7                    
CONSTANT    1.000000E+00                           #vka7                          
CONSTANT    5.000000E-01                           #hk layer 8                    
CONSTANT    1.000000E+00                           #vka8                          
