# Name file for MT3DMS, generated by Flopy version 3.3.5.
LIST              16  p07-mt.list
FTL               10  mt3d_link.ftl 
BTN               31  p07-mt.btn
ADV               32  p07-mt.adv
DSP               33  p07-mt.dsp
SSM               34  p07-mt.ssm
GCG               35  p07-mt.gcg
