# Name file for MT3D-USGS, generated by Flopy version 3.3.5.
LIST              16  uzt-2d-mt.list
FTL               10  mt3d_link.ftl 
BTN               31  uzt-2d-mt.btn
ADV               32  uzt-2d-mt.adv
DSP               33  uzt-2d-mt.dsp
SSM               34  uzt-2d-mt.ssm
UZT2               7  uzt-2d-mt.uzt
GCG               35  uzt-2d-mt.gcg
