## BTN for MT3DMS, generated by Flopy.
##
        20         1        40         1         1         1
D   M   KG  
T T T F T 
 1 1 1 1 1 1 1 1 1 1 1 1 1 1 1 1 1 1 1 1
         0      0.25                           -1 #delr
         0      0.25                           -1 #delc
         0         5                           -1 #htop
        31         1          (40E15.6)        -1 #dz layer 1
   2.500000E-01   2.500000E-01   2.500000E-01   2.500000E-01   2.500000E-01   2.500000E-01   2.500000E-01   2.500000E-01   2.500000E-01   2.500000E-01   2.500000E-01   2.500000E-01   2.500000E-01   2.500000E-01   2.500000E-01   2.500000E-01   2.500000E-01   2.500000E-01   2.500000E-01   2.500000E-01   2.500000E-01   2.500000E-01   2.500000E-01   2.500000E-01   2.500000E-01   2.500000E-01   2.500000E-01   2.500000E-01   2.500000E-01   2.500000E-01   2.500000E-01   2.500000E-01   2.500000E-01   2.500000E-01   2.500000E-01   2.500000E-01   2.500000E-01   2.500000E-01   2.500000E-01   2.500000E-01
        31         1          (40E15.6)        -1 #dz layer 2
   2.500000E-01   2.500000E-01   2.500000E-01   2.500000E-01   2.500000E-01   2.500000E-01   2.500000E-01   2.500000E-01   2.500000E-01   2.500000E-01   2.500000E-01   2.500000E-01   2.500000E-01   2.500000E-01   2.500000E-01   2.500000E-01   2.500000E-01   2.500000E-01   2.500000E-01   2.500000E-01   2.500000E-01   2.500000E-01   2.500000E-01   2.500000E-01   2.500000E-01   2.500000E-01   2.500000E-01   2.500000E-01   2.500000E-01   2.500000E-01   2.500000E-01   2.500000E-01   2.500000E-01   2.500000E-01   2.500000E-01   2.500000E-01   2.500000E-01   2.500000E-01   2.500000E-01   2.500000E-01
        31         1          (40E15.6)        -1 #dz layer 3
   2.500000E-01   2.500000E-01   2.500000E-01   2.500000E-01   2.500000E-01   2.500000E-01   2.500000E-01   2.500000E-01   2.500000E-01   2.500000E-01   2.500000E-01   2.500000E-01   2.500000E-01   2.500000E-01   2.500000E-01   2.500000E-01   2.500000E-01   2.500000E-01   2.500000E-01   2.500000E-01   2.500000E-01   2.500000E-01   2.500000E-01   2.500000E-01   2.500000E-01   2.500000E-01   2.500000E-01   2.500000E-01   2.500000E-01   2.500000E-01   2.500000E-01   2.500000E-01   2.500000E-01   2.500000E-01   2.500000E-01   2.500000E-01   2.500000E-01   2.500000E-01   2.500000E-01   2.500000E-01
        31         1          (40E15.6)        -1 #dz layer 4
   2.500000E-01   2.500000E-01   2.500000E-01   2.500000E-01   2.500000E-01   2.500000E-01   2.500000E-01   2.500000E-01   2.500000E-01   2.500000E-01   2.500000E-01   2.500000E-01   2.500000E-01   2.500000E-01   2.500000E-01   2.500000E-01   2.500000E-01   2.500000E-01   2.500000E-01   2.500000E-01   2.500000E-01   2.500000E-01   2.500000E-01   2.500000E-01   2.500000E-01   2.500000E-01   2.500000E-01   2.500000E-01   2.500000E-01   2.500000E-01   2.500000E-01   2.500000E-01   2.500000E-01   2.500000E-01   2.500000E-01   2.500000E-01   2.500000E-01   2.500000E-01   2.500000E-01   2.500000E-01
        31         1          (40E15.6)        -1 #dz layer 5
   2.500000E-01   2.500000E-01   2.500000E-01   2.500000E-01   2.500000E-01   2.500000E-01   2.500000E-01   2.500000E-01   2.500000E-01   2.500000E-01   2.500000E-01   2.500000E-01   2.500000E-01   2.500000E-01   2.500000E-01   2.500000E-01   2.500000E-01   2.500000E-01   2.500000E-01   2.500000E-01   2.500000E-01   2.500000E-01   2.500000E-01   2.500000E-01   2.500000E-01   2.500000E-01   2.500000E-01   2.500000E-01   2.500000E-01   2.500000E-01   2.500000E-01   2.500000E-01   2.500000E-01   2.500000E-01   2.500000E-01   2.500000E-01   2.500000E-01   2.500000E-01   2.500000E-01   2.500000E-01
        31         1          (40E15.6)        -1 #dz layer 6
   2.500000E-01   2.500000E-01   2.500000E-01   2.500000E-01   2.500000E-01   2.500000E-01   2.500000E-01   2.500000E-01   2.500000E-01   2.500000E-01   2.500000E-01   2.500000E-01   2.500000E-01   2.500000E-01   2.500000E-01   2.500000E-01   2.500000E-01   2.500000E-01   2.500000E-01   2.500000E-01   2.500000E-01   2.500000E-01   2.500000E-01   2.500000E-01   2.500000E-01   2.500000E-01   2.500000E-01   2.500000E-01   2.500000E-01   2.500000E-01   2.500000E-01   2.500000E-01   2.500000E-01   2.500000E-01   2.500000E-01   2.500000E-01   2.500000E-01   2.500000E-01   2.500000E-01   2.500000E-01
        31         1          (40E15.6)        -1 #dz layer 7
   2.500000E-01   2.500000E-01   2.500000E-01   2.500000E-01   2.500000E-01   2.500000E-01   2.500000E-01   2.500000E-01   2.500000E-01   2.500000E-01   2.500000E-01   2.500000E-01   2.500000E-01   2.500000E-01   2.500000E-01   2.500000E-01   2.500000E-01   2.500000E-01   2.500000E-01   2.500000E-01   2.500000E-01   2.500000E-01   2.500000E-01   2.500000E-01   2.500000E-01   2.500000E-01   2.500000E-01   2.500000E-01   2.500000E-01   2.500000E-01   2.500000E-01   2.500000E-01   2.500000E-01   2.500000E-01   2.500000E-01   2.500000E-01   2.500000E-01   2.500000E-01   2.500000E-01   2.500000E-01
        31         1          (40E15.6)        -1 #dz layer 8
   2.500000E-01   2.500000E-01   2.500000E-01   2.500000E-01   2.500000E-01   2.500000E-01   2.500000E-01   2.500000E-01   2.500000E-01   2.500000E-01   2.500000E-01   2.500000E-01   2.500000E-01   2.500000E-01   2.500000E-01   2.500000E-01   2.500000E-01   2.500000E-01   2.500000E-01   2.500000E-01   2.500000E-01   2.500000E-01   2.500000E-01   2.500000E-01   2.500000E-01   2.500000E-01   2.500000E-01   2.500000E-01   2.500000E-01   2.500000E-01   2.500000E-01   2.500000E-01   2.500000E-01   2.500000E-01   2.500000E-01   2.500000E-01   2.500000E-01   2.500000E-01   2.500000E-01   2.500000E-01
        31         1          (40E15.6)        -1 #dz layer 9
   2.500000E-01   2.500000E-01   2.500000E-01   2.500000E-01   2.500000E-01   2.500000E-01   2.500000E-01   2.500000E-01   2.500000E-01   2.500000E-01   2.500000E-01   2.500000E-01   2.500000E-01   2.500000E-01   2.500000E-01   2.500000E-01   2.500000E-01   2.500000E-01   2.500000E-01   2.500000E-01   2.500000E-01   2.500000E-01   2.500000E-01   2.500000E-01   2.500000E-01   2.500000E-01   2.500000E-01   2.500000E-01   2.500000E-01   2.500000E-01   2.500000E-01   2.500000E-01   2.500000E-01   2.500000E-01   2.500000E-01   2.500000E-01   2.500000E-01   2.500000E-01   2.500000E-01   2.500000E-01
        31         1          (40E15.6)        -1 #dz layer 10
   2.500000E-01   2.500000E-01   2.500000E-01   2.500000E-01   2.500000E-01   2.500000E-01   2.500000E-01   2.500000E-01   2.500000E-01   2.500000E-01   2.500000E-01   2.500000E-01   2.500000E-01   2.500000E-01   2.500000E-01   2.500000E-01   2.500000E-01   2.500000E-01   2.500000E-01   2.500000E-01   2.500000E-01   2.500000E-01   2.500000E-01   2.500000E-01   2.500000E-01   2.500000E-01   2.500000E-01   2.500000E-01   2.500000E-01   2.500000E-01   2.500000E-01   2.500000E-01   2.500000E-01   2.500000E-01   2.500000E-01   2.500000E-01   2.500000E-01   2.500000E-01   2.500000E-01   2.500000E-01
        31         1          (40E15.6)        -1 #dz layer 11
   2.500000E-01   2.500000E-01   2.500000E-01   2.500000E-01   2.500000E-01   2.500000E-01   2.500000E-01   2.500000E-01   2.500000E-01   2.500000E-01   2.500000E-01   2.500000E-01   2.500000E-01   2.500000E-01   2.500000E-01   2.500000E-01   2.500000E-01   2.500000E-01   2.500000E-01   2.500000E-01   2.500000E-01   2.500000E-01   2.500000E-01   2.500000E-01   2.500000E-01   2.500000E-01   2.500000E-01   2.500000E-01   2.500000E-01   2.500000E-01   2.500000E-01   2.500000E-01   2.500000E-01   2.500000E-01   2.500000E-01   2.500000E-01   2.500000E-01   2.500000E-01   2.500000E-01   2.500000E-01
        31         1          (40E15.6)        -1 #dz layer 12
   2.500000E-01   2.500000E-01   2.500000E-01   2.500000E-01   2.500000E-01   2.500000E-01   2.500000E-01   2.500000E-01   2.500000E-01   2.500000E-01   2.500000E-01   2.500000E-01   2.500000E-01   2.500000E-01   2.500000E-01   2.500000E-01   2.500000E-01   2.500000E-01   2.500000E-01   2.500000E-01   2.500000E-01   2.500000E-01   2.500000E-01   2.500000E-01   2.500000E-01   2.500000E-01   2.500000E-01   2.500000E-01   2.500000E-01   2.500000E-01   2.500000E-01   2.500000E-01   2.500000E-01   2.500000E-01   2.500000E-01   2.500000E-01   2.500000E-01   2.500000E-01   2.500000E-01   2.500000E-01
        31         1          (40E15.6)        -1 #dz layer 13
   2.500000E-01   2.500000E-01   2.500000E-01   2.500000E-01   2.500000E-01   2.500000E-01   2.500000E-01   2.500000E-01   2.500000E-01   2.500000E-01   2.500000E-01   2.500000E-01   2.500000E-01   2.500000E-01   2.500000E-01   2.500000E-01   2.500000E-01   2.500000E-01   2.500000E-01   2.500000E-01   2.500000E-01   2.500000E-01   2.500000E-01   2.500000E-01   2.500000E-01   2.500000E-01   2.500000E-01   2.500000E-01   2.500000E-01   2.500000E-01   2.500000E-01   2.500000E-01   2.500000E-01   2.500000E-01   2.500000E-01   2.500000E-01   2.500000E-01   2.500000E-01   2.500000E-01   2.500000E-01
        31         1          (40E15.6)        -1 #dz layer 14
   2.500000E-01   2.500000E-01   2.500000E-01   2.500000E-01   2.500000E-01   2.500000E-01   2.500000E-01   2.500000E-01   2.500000E-01   2.500000E-01   2.500000E-01   2.500000E-01   2.500000E-01   2.500000E-01   2.500000E-01   2.500000E-01   2.500000E-01   2.500000E-01   2.500000E-01   2.500000E-01   2.500000E-01   2.500000E-01   2.500000E-01   2.500000E-01   2.500000E-01   2.500000E-01   2.500000E-01   2.500000E-01   2.500000E-01   2.500000E-01   2.500000E-01   2.500000E-01   2.500000E-01   2.500000E-01   2.500000E-01   2.500000E-01   2.500000E-01   2.500000E-01   2.500000E-01   2.500000E-01
        31         1          (40E15.6)        -1 #dz layer 15
   2.500000E-01   2.500000E-01   2.500000E-01   2.500000E-01   2.500000E-01   2.500000E-01   2.500000E-01   2.500000E-01   2.500000E-01   2.500000E-01   2.500000E-01   2.500000E-01   2.500000E-01   2.500000E-01   2.500000E-01   2.500000E-01   2.500000E-01   2.500000E-01   2.500000E-01   2.500000E-01   2.500000E-01   2.500000E-01   2.500000E-01   2.500000E-01   2.500000E-01   2.500000E-01   2.500000E-01   2.500000E-01   2.500000E-01   2.500000E-01   2.500000E-01   2.500000E-01   2.500000E-01   2.500000E-01   2.500000E-01   2.500000E-01   2.500000E-01   2.500000E-01   2.500000E-01   2.500000E-01
        31         1          (40E15.6)        -1 #dz layer 16
   2.500000E-01   2.500000E-01   2.500000E-01   2.500000E-01   2.500000E-01   2.500000E-01   2.500000E-01   2.500000E-01   2.500000E-01   2.500000E-01   2.500000E-01   2.500000E-01   2.500000E-01   2.500000E-01   2.500000E-01   2.500000E-01   2.500000E-01   2.500000E-01   2.500000E-01   2.500000E-01   2.500000E-01   2.500000E-01   2.500000E-01   2.500000E-01   2.500000E-01   2.500000E-01   2.500000E-01   2.500000E-01   2.500000E-01   2.500000E-01   2.500000E-01   2.500000E-01   2.500000E-01   2.500000E-01   2.500000E-01   2.500000E-01   2.500000E-01   2.500000E-01   2.500000E-01   2.500000E-01
        31         1          (40E15.6)        -1 #dz layer 17
   2.500000E-01   2.500000E-01   2.500000E-01   2.500000E-01   2.500000E-01   2.500000E-01   2.500000E-01   2.500000E-01   2.500000E-01   2.500000E-01   2.500000E-01   2.500000E-01   2.500000E-01   2.500000E-01   2.500000E-01   2.500000E-01   2.500000E-01   2.500000E-01   2.500000E-01   2.500000E-01   2.500000E-01   2.500000E-01   2.500000E-01   2.500000E-01   2.500000E-01   2.500000E-01   2.500000E-01   2.500000E-01   2.500000E-01   2.500000E-01   2.500000E-01   2.500000E-01   2.500000E-01   2.500000E-01   2.500000E-01   2.500000E-01   2.500000E-01   2.500000E-01   2.500000E-01   2.500000E-01
        31         1          (40E15.6)        -1 #dz layer 18
   2.500000E-01   2.500000E-01   2.500000E-01   2.500000E-01   2.500000E-01   2.500000E-01   2.500000E-01   2.500000E-01   2.500000E-01   2.500000E-01   2.500000E-01   2.500000E-01   2.500000E-01   2.500000E-01   2.500000E-01   2.500000E-01   2.500000E-01   2.500000E-01   2.500000E-01   2.500000E-01   2.500000E-01   2.500000E-01   2.500000E-01   2.500000E-01   2.500000E-01   2.500000E-01   2.500000E-01   2.500000E-01   2.500000E-01   2.500000E-01   2.500000E-01   2.500000E-01   2.500000E-01   2.500000E-01   2.500000E-01   2.500000E-01   2.500000E-01   2.500000E-01   2.500000E-01   2.500000E-01
        31         1          (40E15.6)        -1 #dz layer 19
   2.500000E-01   2.500000E-01   2.500000E-01   2.500000E-01   2.500000E-01   2.500000E-01   2.500000E-01   2.500000E-01   2.500000E-01   2.500000E-01   2.500000E-01   2.500000E-01   2.500000E-01   2.500000E-01   2.500000E-01   2.500000E-01   2.500000E-01   2.500000E-01   2.500000E-01   2.500000E-01   2.500000E-01   2.500000E-01   2.500000E-01   2.500000E-01   2.500000E-01   2.500000E-01   2.500000E-01   2.500000E-01   2.500000E-01   2.500000E-01   2.500000E-01   2.500000E-01   2.500000E-01   2.500000E-01   2.500000E-01   2.500000E-01   2.500000E-01   2.500000E-01   2.500000E-01   2.500000E-01
        31         1          (40E15.6)        -1 #dz layer 20
   2.500000E-01   2.500000E-01   2.500000E-01   2.500000E-01   2.500000E-01   2.500000E-01   2.500000E-01   2.500000E-01   2.500000E-01   2.500000E-01   2.500000E-01   2.500000E-01   2.500000E-01   2.500000E-01   2.500000E-01   2.500000E-01   2.500000E-01   2.500000E-01   2.500000E-01   2.500000E-01   2.500000E-01   2.500000E-01   2.500000E-01   2.500000E-01   2.500000E-01   2.500000E-01   2.500000E-01   2.500000E-01   2.500000E-01   2.500000E-01   2.500000E-01   2.500000E-01   2.500000E-01   2.500000E-01   2.500000E-01   2.500000E-01   2.500000E-01   2.500000E-01   2.500000E-01   2.500000E-01
         0      0.45                           -1 #prsity layer 1
         0      0.45                           -1 #prsity layer 2
         0      0.45                           -1 #prsity layer 3
         0      0.45                           -1 #prsity layer 4
         0      0.45                           -1 #prsity layer 5
         0      0.45                           -1 #prsity layer 6
         0      0.45                           -1 #prsity layer 7
         0      0.45                           -1 #prsity layer 8
         0      0.45                           -1 #prsity layer 9
         0      0.45                           -1 #prsity layer 10
         0      0.45                           -1 #prsity layer 11
         0      0.45                           -1 #prsity layer 12
         0      0.45                           -1 #prsity layer 13
         0      0.45                           -1 #prsity layer 14
         0      0.45                           -1 #prsity layer 15
         0      0.45                           -1 #prsity layer 16
         0      0.45                           -1 #prsity layer 17
         0      0.45                           -1 #prsity layer 18
         0      0.45                           -1 #prsity layer 19
         0      0.45                           -1 #prsity layer 20
         0         1                           -1 #icbund layer 1
         0         1                           -1 #icbund layer 2
         0         1                           -1 #icbund layer 3
         0         1                           -1 #icbund layer 4
         0         1                           -1 #icbund layer 5
         0         1                           -1 #icbund layer 6
         0         1                           -1 #icbund layer 7
         0         1                           -1 #icbund layer 8
         0         1                           -1 #icbund layer 9
         0         1                           -1 #icbund layer 10
         0         1                           -1 #icbund layer 11
         0         1                           -1 #icbund layer 12
         0         1                           -1 #icbund layer 13
         0         1                           -1 #icbund layer 14
         0         1                           -1 #icbund layer 15
         0         1                           -1 #icbund layer 16
         0         1                           -1 #icbund layer 17
         0         1                           -1 #icbund layer 18
         0         1                           -1 #icbund layer 19
         0         1                           -1 #icbund layer 20
         0         0                           -1 #sconc1 layer 1
         0         0                           -1 #sconc1 layer 2
         0         0                           -1 #sconc1 layer 3
         0         0                           -1 #sconc1 layer 4
         0         0                           -1 #sconc1 layer 5
         0         0                           -1 #sconc1 layer 6
         0         0                           -1 #sconc1 layer 7
         0         0                           -1 #sconc1 layer 8
         0         0                           -1 #sconc1 layer 9
         0         0                           -1 #sconc1 layer 10
         0         0                           -1 #sconc1 layer 11
         0         0                           -1 #sconc1 layer 12
         0         0                           -1 #sconc1 layer 13
         0         0                           -1 #sconc1 layer 14
         0         0                           -1 #sconc1 layer 15
         0         0                           -1 #sconc1 layer 16
         0         0                           -1 #sconc1 layer 17
         0         0                           -1 #sconc1 layer 18
         0         0                           -1 #sconc1 layer 19
         0         0                           -1 #sconc1 layer 20
     1E+30  1.00E-02
         0         0         0         0         T
       120
1.0000E+002.0000E+003.0000E+004.0000E+005.0000E+006.0000E+007.0000E+008.0000E+00
9.0000E+001.0000E+011.1000E+011.2000E+011.3000E+011.4000E+011.5000E+011.6000E+01
1.7000E+011.8000E+011.9000E+012.0000E+012.1000E+012.2000E+012.3000E+012.4000E+01
2.5000E+012.6000E+012.7000E+012.8000E+012.9000E+013.0000E+013.1000E+013.2000E+01
3.3000E+013.4000E+013.5000E+013.6000E+013.7000E+013.8000E+013.9000E+014.0000E+01
4.1000E+014.2000E+014.3000E+014.4000E+014.5000E+014.6000E+014.7000E+014.8000E+01
4.9000E+015.0000E+015.1000E+015.2000E+015.3000E+015.4000E+015.5000E+015.6000E+01
5.7000E+015.8000E+015.9000E+016.0000E+016.1000E+016.2000E+016.3000E+016.4000E+01
6.5000E+016.6000E+016.7000E+016.8000E+016.9000E+017.0000E+017.1000E+017.2000E+01
7.3000E+017.4000E+017.5000E+017.6000E+017.7000E+017.8000E+017.9000E+018.0000E+01
8.1000E+018.2000E+018.3000E+018.4000E+018.5000E+018.6000E+018.7000E+018.8000E+01
8.9000E+019.0000E+019.1000E+019.2000E+019.3000E+019.4000E+019.5000E+019.6000E+01
9.7000E+019.8000E+019.9000E+011.0000E+021.0100E+021.0200E+021.0300E+021.0400E+02
1.0500E+021.0600E+021.0700E+021.0800E+021.0900E+021.1000E+021.1100E+021.1200E+02
1.1300E+021.1400E+021.1500E+021.1600E+021.1700E+021.1800E+021.1900E+021.2000E+02
         0         1
         T         1
        60       120         1
      0.05     50000         1         0
