# UPW package for MODFLOW-NWT generated by Flopy 3.3.5
         0    -1E+30         0         0 
         1         1         1         1         1         1         1         1         1         1         1         1         1         1         1         1         1         1         1         1
         0         0         0         0         0         0         0         0         0         0         0         0         0         0         0         0         0         0         0         0
   1.000000E+00   1.000000E+00   1.000000E+00   1.000000E+00   1.000000E+00   1.000000E+00   1.000000E+00   1.000000E+00   1.000000E+00   1.000000E+00   1.000000E+00   1.000000E+00   1.000000E+00   1.000000E+00   1.000000E+00   1.000000E+00   1.000000E+00   1.000000E+00   1.000000E+00   1.000000E+00
         0         0         0         0         0         0         0         0         0         0         0         0         0         0         0         0         0         0         0         0
         0         0         0         0         0         0         0         0         0         0         0         0         0         0         0         0         0         0         0         0
CONSTANT    2.500000E+00                           #hk layer 1                    
CONSTANT    5.000000E-01                           #vka1                          
CONSTANT    1.000000E-05                           #ss layer 1                    
CONSTANT    3.500000E-01                           #sy layer 1                    
CONSTANT    2.500000E+00                           #hk layer 2                    
CONSTANT    5.000000E-01                           #vka2                          
CONSTANT    1.000000E-05                           #ss layer 2                    
CONSTANT    3.500000E-01                           #sy layer 2                    
CONSTANT    2.500000E+00                           #hk layer 3                    
CONSTANT    5.000000E-01                           #vka3                          
CONSTANT    1.000000E-05                           #ss layer 3                    
CONSTANT    3.500000E-01                           #sy layer 3                    
CONSTANT    2.500000E+00                           #hk layer 4                    
CONSTANT    5.000000E-01                           #vka4                          
CONSTANT    1.000000E-05                           #ss layer 4                    
CONSTANT    3.500000E-01                           #sy layer 4                    
CONSTANT    2.500000E+00                           #hk layer 5                    
CONSTANT    5.000000E-01                           #vka5                          
CONSTANT    1.000000E-05                           #ss layer 5                    
CONSTANT    3.500000E-01                           #sy layer 5                    
CONSTANT    2.500000E+00                           #hk layer 6                    
CONSTANT    5.000000E-01                           #vka6                          
CONSTANT    1.000000E-05                           #ss layer 6                    
CONSTANT    3.500000E-01                           #sy layer 6                    
CONSTANT    2.500000E+00                           #hk layer 7                    
CONSTANT    5.000000E-01                           #vka7                          
CONSTANT    1.000000E-05                           #ss layer 7                    
CONSTANT    3.500000E-01                           #sy layer 7                    
CONSTANT    2.500000E+00                           #hk layer 8                    
CONSTANT    5.000000E-01                           #vka8                          
CONSTANT    1.000000E-05                           #ss layer 8                    
CONSTANT    3.500000E-01                           #sy layer 8                    
CONSTANT    2.500000E+00                           #hk layer 9                    
CONSTANT    5.000000E-01                           #vka9                          
CONSTANT    1.000000E-05                           #ss layer 9                    
CONSTANT    3.500000E-01                           #sy layer 9                    
CONSTANT    2.500000E+00                           #hk layer 10                   
CONSTANT    5.000000E-01                           #vka10                         
CONSTANT    1.000000E-05                           #ss layer 10                   
CONSTANT    3.500000E-01                           #sy layer 10                   
CONSTANT    2.500000E+00                           #hk layer 11                   
CONSTANT    5.000000E-01                           #vka11                         
CONSTANT    1.000000E-05                           #ss layer 11                   
CONSTANT    3.500000E-01                           #sy layer 11                   
CONSTANT    2.500000E+00                           #hk layer 12                   
CONSTANT    5.000000E-01                           #vka12                         
CONSTANT    1.000000E-05                           #ss layer 12                   
CONSTANT    3.500000E-01                           #sy layer 12                   
CONSTANT    2.500000E+00                           #hk layer 13                   
CONSTANT    5.000000E-01                           #vka13                         
CONSTANT    1.000000E-05                           #ss layer 13                   
CONSTANT    3.500000E-01                           #sy layer 13                   
CONSTANT    2.500000E+00                           #hk layer 14                   
CONSTANT    5.000000E-01                           #vka14                         
CONSTANT    1.000000E-05                           #ss layer 14                   
CONSTANT    3.500000E-01                           #sy layer 14                   
CONSTANT    2.500000E+00                           #hk layer 15                   
CONSTANT    5.000000E-01                           #vka15                         
CONSTANT    1.000000E-05                           #ss layer 15                   
CONSTANT    3.500000E-01                           #sy layer 15                   
CONSTANT    2.500000E+00                           #hk layer 16                   
CONSTANT    5.000000E-01                           #vka16                         
CONSTANT    1.000000E-05                           #ss layer 16                   
CONSTANT    3.500000E-01                           #sy layer 16                   
CONSTANT    2.500000E+00                           #hk layer 17                   
CONSTANT    5.000000E-01                           #vka17                         
CONSTANT    1.000000E-05                           #ss layer 17                   
CONSTANT    3.500000E-01                           #sy layer 17                   
CONSTANT    2.500000E+00                           #hk layer 18                   
CONSTANT    5.000000E-01                           #vka18                         
CONSTANT    1.000000E-05                           #ss layer 18                   
CONSTANT    3.500000E-01                           #sy layer 18                   
CONSTANT    2.500000E+00                           #hk layer 19                   
CONSTANT    5.000000E-01                           #vka19                         
CONSTANT    1.000000E-05                           #ss layer 19                   
CONSTANT    3.500000E-01                           #sy layer 19                   
CONSTANT    2.500000E+00                           #hk layer 20                   
CONSTANT    5.000000E-01                           #vka20                         
CONSTANT    1.000000E-05                           #ss layer 20                   
CONSTANT    3.500000E-01                           #sy layer 20                   
