# Name file for MODFLOW-NWT, generated by Flopy version 3.3.5.
#xll:0.0; yll:0.0; rotation:0.0; units:meters; lenuni:2; start_datetime:1-1-1970
LIST               2  uzt-2d-mf.list
DIS               11  uzt-2d-mf.dis
BAS6              13  uzt-2d-mf.bas
UPW               31  uzt-2d-mf.upw
UZF               19  uzt-2d-mf.uzf
OC                14  uzt-2d-mf.oc
NWT               32  uzt-2d-mf.nwt
LMT6              30  uzt-2d-mf.lmt6
DATA(BINARY)      51  uzt-2d-mf.hds REPLACE
