# BAS6 package for MODFLOW-NWT generated by Flopy 3.3.5
FREE
INTERNAL               1    (40I10) -1 #ibound layer 1                
         0         0         0         0         0         0         0         0         0         0         0         0         0         0         0         0         0         0         0         0         0         0         0         0         0         0         0         0         0         0         0         0         0         0         0         0         0         0         0         0
INTERNAL               1    (40I10) -1 #ibound layer 2                
         0         0         0         0         0         0         0         0         0         0         0         0         0         0         0         0         0         0         0         0         0         0         0         0         0         0         0         0         0         0         0         0         0         0         0         0         0         0         0         0
INTERNAL               1    (40I10) -1 #ibound layer 3                
         0         0         0         0         0         0         0         0         0         0         0         0         0         0         0         0         0         0         0         0         0         0         0         0         0         0         0         0         0         0         0         0         0         0         0         0         0         0         0         0
INTERNAL               1    (40I10) -1 #ibound layer 4                
         0         0         0         0         0         0         0         0         0         0         0         0         0         0         0         0         0         0         0         0         0         0         0         0         0         0         0         0         0         0         0         0         0         0         0         0         0         0         0         0
INTERNAL               1    (40I10) -1 #ibound layer 5                
         0         0         0         0         0         0         0         0         0         0         0         0         0         0         0         0         0         0         0         0         0         0         0         0         0         0         0         0         0         0         0         0         0         0         0         0         0         0         0         0
INTERNAL               1    (40I10) -1 #ibound layer 6                
         0         0         0         0         0         0         0         0         0         0         0         0         0         0         0         0         0         0         0         0         0         0         0         0         0         0         0         0         0         0         0         0         0         0         0         0         0         0         0         0
INTERNAL               1    (40I10) -1 #ibound layer 7                
         0         0         0         0         0         0         0         0         0         0         0         0         0         0         0         0         0         0         0         0         0         0         0         0         0         0         0         0         0         0         0         0         0         0         0         0         0         0         0         0
INTERNAL               1    (40I10) -1 #ibound layer 8                
         0         0         0         0         0         0         0         0         0         0         0         0         0         0         0         0         0         0         0         0         0         0         0         0         0         0         0         0         0         0         0         0         0         0         0         0         0         0         0         0
INTERNAL               1    (40I10) -1 #ibound layer 9                
         0         0         0         0         0         0         0         0         0         0         0         0         0         0         0         0         0         0         0         0         0         0         0         0         0         0         0         0         0         0         0         0         0         0         0         0         0         0         0         0
INTERNAL               1    (40I10) -1 #ibound layer 10               
         0         0         0         0         0         0         0         0         0         0         0         0         0         0         0         0         0         0         0         0         0         0         0         0         0         0         0         0         0         0         0         0         0         0         0         0         0         0         0         0
INTERNAL               1    (40I10) -1 #ibound layer 11               
         0         0         0         0         0         0         0         0         0         0         0         0         0         0         0         0         0         0         0         0         0         0         0         0         0         0         0         0         0         0         0         0         0         0         0         0         0         0         0         0
INTERNAL               1    (40I10) -1 #ibound layer 12               
         0         1         1         1         1         1         1         1         1         1         1         1         1         1         1         1         1         1         1         1         1         1         1         1         1         1         1         1         1         1         1         1         1         1         1         1         1         1         1         0
INTERNAL               1    (40I10) -1 #ibound layer 13               
         0         1         1         1         1         1         1         1         1         1         1         1         1         1         1         1         1         1         1         1         1         1         1         1         1         1         1         1         1         1         1         1         1         1         1         1         1         1         1         0
INTERNAL               1    (40I10) -1 #ibound layer 14               
        -1         1         1         1         1         1         1         1         1         1         1         1         1         1         1         1         1         1         1         1         1         1         1         1         1         1         1         1         1         1         1         1         1         1         1         1         1         1         1        -1
INTERNAL               1    (40I10) -1 #ibound layer 15               
        -1         1         1         1         1         1         1         1         1         1         1         1         1         1         1         1         1         1         1         1         1         1         1         1         1         1         1         1         1         1         1         1         1         1         1         1         1         1         1        -1
INTERNAL               1    (40I10) -1 #ibound layer 16               
        -1         1         1         1         1         1         1         1         1         1         1         1         1         1         1         1         1         1         1         1         1         1         1         1         1         1         1         1         1         1         1         1         1         1         1         1         1         1         1        -1
INTERNAL               1    (40I10) -1 #ibound layer 17               
        -1         1         1         1         1         1         1         1         1         1         1         1         1         1         1         1         1         1         1         1         1         1         1         1         1         1         1         1         1         1         1         1         1         1         1         1         1         1         1        -1
INTERNAL               1    (40I10) -1 #ibound layer 18               
        -1         1         1         1         1         1         1         1         1         1         1         1         1         1         1         1         1         1         1         1         1         1         1         1         1         1         1         1         1         1         1         1         1         1         1         1         1         1         1        -1
INTERNAL               1    (40I10) -1 #ibound layer 19               
        -1         1         1         1         1         1         1         1         1         1         1         1         1         1         1         1         1         1         1         1         1         1         1         1         1         1         1         1         1         1         1         1         1         1         1         1         1         1         1        -1
INTERNAL               1    (40I10) -1 #ibound layer 20               
        -1         1         1         1         1         1         1         1         1         1         1         1         1         1         1         1         1         1         1         1         1         1         1         1         1         1         1         1         1         1         1         1         1         1         1         1         1         1         1        -1
   -999.99
INTERNAL               1  (40E15.6) -1 #strt layer 1                  
   1.625000E+00   1.625000E+00   1.625000E+00   1.625000E+00   1.625000E+00   1.625000E+00   1.625000E+00   1.625000E+00   1.625000E+00   1.625000E+00   1.625000E+00   1.625000E+00   1.625000E+00   1.625000E+00   1.625000E+00   1.625000E+00   1.625000E+00   1.625000E+00   1.625000E+00   1.625000E+00   1.625000E+00   1.625000E+00   1.625000E+00   1.625000E+00   1.625000E+00   1.625000E+00   1.625000E+00   1.625000E+00   1.625000E+00   1.625000E+00   1.625000E+00   1.625000E+00   1.625000E+00   1.625000E+00   1.625000E+00   1.625000E+00   1.625000E+00   1.625000E+00   1.625000E+00   1.625000E+00
INTERNAL               1  (40E15.6) -1 #strt layer 2                  
   1.625000E+00   1.625000E+00   1.625000E+00   1.625000E+00   1.625000E+00   1.625000E+00   1.625000E+00   1.625000E+00   1.625000E+00   1.625000E+00   1.625000E+00   1.625000E+00   1.625000E+00   1.625000E+00   1.625000E+00   1.625000E+00   1.625000E+00   1.625000E+00   1.625000E+00   1.625000E+00   1.625000E+00   1.625000E+00   1.625000E+00   1.625000E+00   1.625000E+00   1.625000E+00   1.625000E+00   1.625000E+00   1.625000E+00   1.625000E+00   1.625000E+00   1.625000E+00   1.625000E+00   1.625000E+00   1.625000E+00   1.625000E+00   1.625000E+00   1.625000E+00   1.625000E+00   1.625000E+00
INTERNAL               1  (40E15.6) -1 #strt layer 3                  
   1.625000E+00   1.625000E+00   1.625000E+00   1.625000E+00   1.625000E+00   1.625000E+00   1.625000E+00   1.625000E+00   1.625000E+00   1.625000E+00   1.625000E+00   1.625000E+00   1.625000E+00   1.625000E+00   1.625000E+00   1.625000E+00   1.625000E+00   1.625000E+00   1.625000E+00   1.625000E+00   1.625000E+00   1.625000E+00   1.625000E+00   1.625000E+00   1.625000E+00   1.625000E+00   1.625000E+00   1.625000E+00   1.625000E+00   1.625000E+00   1.625000E+00   1.625000E+00   1.625000E+00   1.625000E+00   1.625000E+00   1.625000E+00   1.625000E+00   1.625000E+00   1.625000E+00   1.625000E+00
INTERNAL               1  (40E15.6) -1 #strt layer 4                  
   1.625000E+00   1.625000E+00   1.625000E+00   1.625000E+00   1.625000E+00   1.625000E+00   1.625000E+00   1.625000E+00   1.625000E+00   1.625000E+00   1.625000E+00   1.625000E+00   1.625000E+00   1.625000E+00   1.625000E+00   1.625000E+00   1.625000E+00   1.625000E+00   1.625000E+00   1.625000E+00   1.625000E+00   1.625000E+00   1.625000E+00   1.625000E+00   1.625000E+00   1.625000E+00   1.625000E+00   1.625000E+00   1.625000E+00   1.625000E+00   1.625000E+00   1.625000E+00   1.625000E+00   1.625000E+00   1.625000E+00   1.625000E+00   1.625000E+00   1.625000E+00   1.625000E+00   1.625000E+00
INTERNAL               1  (40E15.6) -1 #strt layer 5                  
   1.625000E+00   1.625000E+00   1.625000E+00   1.625000E+00   1.625000E+00   1.625000E+00   1.625000E+00   1.625000E+00   1.625000E+00   1.625000E+00   1.625000E+00   1.625000E+00   1.625000E+00   1.625000E+00   1.625000E+00   1.625000E+00   1.625000E+00   1.625000E+00   1.625000E+00   1.625000E+00   1.625000E+00   1.625000E+00   1.625000E+00   1.625000E+00   1.625000E+00   1.625000E+00   1.625000E+00   1.625000E+00   1.625000E+00   1.625000E+00   1.625000E+00   1.625000E+00   1.625000E+00   1.625000E+00   1.625000E+00   1.625000E+00   1.625000E+00   1.625000E+00   1.625000E+00   1.625000E+00
INTERNAL               1  (40E15.6) -1 #strt layer 6                  
   1.625000E+00   1.625000E+00   1.625000E+00   1.625000E+00   1.625000E+00   1.625000E+00   1.625000E+00   1.625000E+00   1.625000E+00   1.625000E+00   1.625000E+00   1.625000E+00   1.625000E+00   1.625000E+00   1.625000E+00   1.625000E+00   1.625000E+00   1.625000E+00   1.625000E+00   1.625000E+00   1.625000E+00   1.625000E+00   1.625000E+00   1.625000E+00   1.625000E+00   1.625000E+00   1.625000E+00   1.625000E+00   1.625000E+00   1.625000E+00   1.625000E+00   1.625000E+00   1.625000E+00   1.625000E+00   1.625000E+00   1.625000E+00   1.625000E+00   1.625000E+00   1.625000E+00   1.625000E+00
INTERNAL               1  (40E15.6) -1 #strt layer 7                  
   1.625000E+00   1.625000E+00   1.625000E+00   1.625000E+00   1.625000E+00   1.625000E+00   1.625000E+00   1.625000E+00   1.625000E+00   1.625000E+00   1.625000E+00   1.625000E+00   1.625000E+00   1.625000E+00   1.625000E+00   1.625000E+00   1.625000E+00   1.625000E+00   1.625000E+00   1.625000E+00   1.625000E+00   1.625000E+00   1.625000E+00   1.625000E+00   1.625000E+00   1.625000E+00   1.625000E+00   1.625000E+00   1.625000E+00   1.625000E+00   1.625000E+00   1.625000E+00   1.625000E+00   1.625000E+00   1.625000E+00   1.625000E+00   1.625000E+00   1.625000E+00   1.625000E+00   1.625000E+00
INTERNAL               1  (40E15.6) -1 #strt layer 8                  
   1.625000E+00   1.625000E+00   1.625000E+00   1.625000E+00   1.625000E+00   1.625000E+00   1.625000E+00   1.625000E+00   1.625000E+00   1.625000E+00   1.625000E+00   1.625000E+00   1.625000E+00   1.625000E+00   1.625000E+00   1.625000E+00   1.625000E+00   1.625000E+00   1.625000E+00   1.625000E+00   1.625000E+00   1.625000E+00   1.625000E+00   1.625000E+00   1.625000E+00   1.625000E+00   1.625000E+00   1.625000E+00   1.625000E+00   1.625000E+00   1.625000E+00   1.625000E+00   1.625000E+00   1.625000E+00   1.625000E+00   1.625000E+00   1.625000E+00   1.625000E+00   1.625000E+00   1.625000E+00
INTERNAL               1  (40E15.6) -1 #strt layer 9                  
   1.625000E+00   1.625000E+00   1.625000E+00   1.625000E+00   1.625000E+00   1.625000E+00   1.625000E+00   1.625000E+00   1.625000E+00   1.625000E+00   1.625000E+00   1.625000E+00   1.625000E+00   1.625000E+00   1.625000E+00   1.625000E+00   1.625000E+00   1.625000E+00   1.625000E+00   1.625000E+00   1.625000E+00   1.625000E+00   1.625000E+00   1.625000E+00   1.625000E+00   1.625000E+00   1.625000E+00   1.625000E+00   1.625000E+00   1.625000E+00   1.625000E+00   1.625000E+00   1.625000E+00   1.625000E+00   1.625000E+00   1.625000E+00   1.625000E+00   1.625000E+00   1.625000E+00   1.625000E+00
INTERNAL               1  (40E15.6) -1 #strt layer 10                 
   1.625000E+00   1.625000E+00   1.625000E+00   1.625000E+00   1.625000E+00   1.625000E+00   1.625000E+00   1.625000E+00   1.625000E+00   1.625000E+00   1.625000E+00   1.625000E+00   1.625000E+00   1.625000E+00   1.625000E+00   1.625000E+00   1.625000E+00   1.625000E+00   1.625000E+00   1.625000E+00   1.625000E+00   1.625000E+00   1.625000E+00   1.625000E+00   1.625000E+00   1.625000E+00   1.625000E+00   1.625000E+00   1.625000E+00   1.625000E+00   1.625000E+00   1.625000E+00   1.625000E+00   1.625000E+00   1.625000E+00   1.625000E+00   1.625000E+00   1.625000E+00   1.625000E+00   1.625000E+00
INTERNAL               1  (40E15.6) -1 #strt layer 11                 
   1.625000E+00   1.625000E+00   1.625000E+00   1.625000E+00   1.625000E+00   1.625000E+00   1.625000E+00   1.625000E+00   1.625000E+00   1.625000E+00   1.625000E+00   1.625000E+00   1.625000E+00   1.625000E+00   1.625000E+00   1.625000E+00   1.625000E+00   1.625000E+00   1.625000E+00   1.625000E+00   1.625000E+00   1.625000E+00   1.625000E+00   1.625000E+00   1.625000E+00   1.625000E+00   1.625000E+00   1.625000E+00   1.625000E+00   1.625000E+00   1.625000E+00   1.625000E+00   1.625000E+00   1.625000E+00   1.625000E+00   1.625000E+00   1.625000E+00   1.625000E+00   1.625000E+00   1.625000E+00
INTERNAL               1  (40E15.6) -1 #strt layer 12                 
   1.625000E+00   1.625000E+00   1.625000E+00   1.625000E+00   1.625000E+00   1.625000E+00   1.625000E+00   1.625000E+00   1.625000E+00   1.625000E+00   1.625000E+00   1.625000E+00   1.625000E+00   1.625000E+00   1.625000E+00   1.625000E+00   1.625000E+00   1.625000E+00   1.625000E+00   1.625000E+00   1.625000E+00   1.625000E+00   1.625000E+00   1.625000E+00   1.625000E+00   1.625000E+00   1.625000E+00   1.625000E+00   1.625000E+00   1.625000E+00   1.625000E+00   1.625000E+00   1.625000E+00   1.625000E+00   1.625000E+00   1.625000E+00   1.625000E+00   1.625000E+00   1.625000E+00   1.625000E+00
INTERNAL               1  (40E15.6) -1 #strt layer 13                 
   1.625000E+00   1.625000E+00   1.625000E+00   1.625000E+00   1.625000E+00   1.625000E+00   1.625000E+00   1.625000E+00   1.625000E+00   1.625000E+00   1.625000E+00   1.625000E+00   1.625000E+00   1.625000E+00   1.625000E+00   1.625000E+00   1.625000E+00   1.625000E+00   1.625000E+00   1.625000E+00   1.625000E+00   1.625000E+00   1.625000E+00   1.625000E+00   1.625000E+00   1.625000E+00   1.625000E+00   1.625000E+00   1.625000E+00   1.625000E+00   1.625000E+00   1.625000E+00   1.625000E+00   1.625000E+00   1.625000E+00   1.625000E+00   1.625000E+00   1.625000E+00   1.625000E+00   1.625000E+00
INTERNAL               1  (40E15.6) -1 #strt layer 14                 
   1.625000E+00   1.625000E+00   1.625000E+00   1.625000E+00   1.625000E+00   1.625000E+00   1.625000E+00   1.625000E+00   1.625000E+00   1.625000E+00   1.625000E+00   1.625000E+00   1.625000E+00   1.625000E+00   1.625000E+00   1.625000E+00   1.625000E+00   1.625000E+00   1.625000E+00   1.625000E+00   1.625000E+00   1.625000E+00   1.625000E+00   1.625000E+00   1.625000E+00   1.625000E+00   1.625000E+00   1.625000E+00   1.625000E+00   1.625000E+00   1.625000E+00   1.625000E+00   1.625000E+00   1.625000E+00   1.625000E+00   1.625000E+00   1.625000E+00   1.625000E+00   1.625000E+00   1.625000E+00
INTERNAL               1  (40E15.6) -1 #strt layer 15                 
   1.625000E+00   1.625000E+00   1.625000E+00   1.625000E+00   1.625000E+00   1.625000E+00   1.625000E+00   1.625000E+00   1.625000E+00   1.625000E+00   1.625000E+00   1.625000E+00   1.625000E+00   1.625000E+00   1.625000E+00   1.625000E+00   1.625000E+00   1.625000E+00   1.625000E+00   1.625000E+00   1.625000E+00   1.625000E+00   1.625000E+00   1.625000E+00   1.625000E+00   1.625000E+00   1.625000E+00   1.625000E+00   1.625000E+00   1.625000E+00   1.625000E+00   1.625000E+00   1.625000E+00   1.625000E+00   1.625000E+00   1.625000E+00   1.625000E+00   1.625000E+00   1.625000E+00   1.625000E+00
INTERNAL               1  (40E15.6) -1 #strt layer 16                 
   1.625000E+00   1.625000E+00   1.625000E+00   1.625000E+00   1.625000E+00   1.625000E+00   1.625000E+00   1.625000E+00   1.625000E+00   1.625000E+00   1.625000E+00   1.625000E+00   1.625000E+00   1.625000E+00   1.625000E+00   1.625000E+00   1.625000E+00   1.625000E+00   1.625000E+00   1.625000E+00   1.625000E+00   1.625000E+00   1.625000E+00   1.625000E+00   1.625000E+00   1.625000E+00   1.625000E+00   1.625000E+00   1.625000E+00   1.625000E+00   1.625000E+00   1.625000E+00   1.625000E+00   1.625000E+00   1.625000E+00   1.625000E+00   1.625000E+00   1.625000E+00   1.625000E+00   1.625000E+00
INTERNAL               1  (40E15.6) -1 #strt layer 17                 
   1.625000E+00   1.625000E+00   1.625000E+00   1.625000E+00   1.625000E+00   1.625000E+00   1.625000E+00   1.625000E+00   1.625000E+00   1.625000E+00   1.625000E+00   1.625000E+00   1.625000E+00   1.625000E+00   1.625000E+00   1.625000E+00   1.625000E+00   1.625000E+00   1.625000E+00   1.625000E+00   1.625000E+00   1.625000E+00   1.625000E+00   1.625000E+00   1.625000E+00   1.625000E+00   1.625000E+00   1.625000E+00   1.625000E+00   1.625000E+00   1.625000E+00   1.625000E+00   1.625000E+00   1.625000E+00   1.625000E+00   1.625000E+00   1.625000E+00   1.625000E+00   1.625000E+00   1.625000E+00
INTERNAL               1  (40E15.6) -1 #strt layer 18                 
   1.625000E+00   1.625000E+00   1.625000E+00   1.625000E+00   1.625000E+00   1.625000E+00   1.625000E+00   1.625000E+00   1.625000E+00   1.625000E+00   1.625000E+00   1.625000E+00   1.625000E+00   1.625000E+00   1.625000E+00   1.625000E+00   1.625000E+00   1.625000E+00   1.625000E+00   1.625000E+00   1.625000E+00   1.625000E+00   1.625000E+00   1.625000E+00   1.625000E+00   1.625000E+00   1.625000E+00   1.625000E+00   1.625000E+00   1.625000E+00   1.625000E+00   1.625000E+00   1.625000E+00   1.625000E+00   1.625000E+00   1.625000E+00   1.625000E+00   1.625000E+00   1.625000E+00   1.625000E+00
INTERNAL               1  (40E15.6) -1 #strt layer 19                 
   1.625000E+00   1.625000E+00   1.625000E+00   1.625000E+00   1.625000E+00   1.625000E+00   1.625000E+00   1.625000E+00   1.625000E+00   1.625000E+00   1.625000E+00   1.625000E+00   1.625000E+00   1.625000E+00   1.625000E+00   1.625000E+00   1.625000E+00   1.625000E+00   1.625000E+00   1.625000E+00   1.625000E+00   1.625000E+00   1.625000E+00   1.625000E+00   1.625000E+00   1.625000E+00   1.625000E+00   1.625000E+00   1.625000E+00   1.625000E+00   1.625000E+00   1.625000E+00   1.625000E+00   1.625000E+00   1.625000E+00   1.625000E+00   1.625000E+00   1.625000E+00   1.625000E+00   1.625000E+00
INTERNAL               1  (40E15.6) -1 #strt layer 20                 
   1.625000E+00   1.625000E+00   1.625000E+00   1.625000E+00   1.625000E+00   1.625000E+00   1.625000E+00   1.625000E+00   1.625000E+00   1.625000E+00   1.625000E+00   1.625000E+00   1.625000E+00   1.625000E+00   1.625000E+00   1.625000E+00   1.625000E+00   1.625000E+00   1.625000E+00   1.625000E+00   1.625000E+00   1.625000E+00   1.625000E+00   1.625000E+00   1.625000E+00   1.625000E+00   1.625000E+00   1.625000E+00   1.625000E+00   1.625000E+00   1.625000E+00   1.625000E+00   1.625000E+00   1.625000E+00   1.625000E+00   1.625000E+00   1.625000E+00   1.625000E+00   1.625000E+00   1.625000E+00
