# File generated by Flopy version 3.3.5 on 03/04/2022 at 11:13:50.
BEGIN options
  SAVE_FLOWS
END options

BEGIN packages
  DIS6  .\ex-gwf-csub-p03a.dis  dis
  OBS6  .\ex-gwf-csub-p03a.gwf.obs  obs_0
  IC6  .\ex-gwf-csub-p03a.ic  ic
  NPF6  .\ex-gwf-csub-p03a.npf  npf
  STO6  .\ex-gwf-csub-p03a.sto  sto
  CSUB6  .\ex-gwf-csub-p03a.csub  csub
  CHD6  .\ex-gwf-csub-p03a.chd  chd_0
  OC6  .\ex-gwf-csub-p03a.oc  oc
END packages

