# File generated by Flopy version 3.3.5 on 03/04/2022 at 11:13:50.
BEGIN options
  BOUNDNAMES
  PRINT_INPUT
  SAVE_FLOWS
  GAMMAW    9806.65000000
  BETA  4.65120000E-10
  HEAD_BASED
  NDELAYCELLS  39
  UPDATE_MATERIAL_PROPERTIES
  SPECIFIED_INITIAL_INTERBED_STATE
  OBS6  FILEIN  ex-gwf-csub-p03a.csub.obs
END options

BEGIN dimensions
  NINTERBEDS  13
END dimensions

BEGIN griddata
  cg_ske_cr  LAYERED
    CONSTANT       0.00000000
    CONSTANT       0.00000000
    CONSTANT       0.00000000
    CONSTANT       0.00000000
    CONSTANT  5.42000000E-06
    CONSTANT       0.00000000
    CONSTANT  5.42000000E-06
    CONSTANT       0.00000000
    CONSTANT       0.00000000
    CONSTANT       0.00000000
    CONSTANT       0.00000000
    CONSTANT  5.42000000E-06
    CONSTANT       0.00000000
    CONSTANT  5.42000000E-06
  cg_theta
    CONSTANT       0.30000000
END griddata

BEGIN packagedata
  1  2 1 1  nodelay      -4.91000000       5.48649000       1.00000000  6.69550000E-04  5.42020000E-06       0.30000000     999.00000000     999.00000000  CUNIT
  2  3 1 1  nodelay      -5.33000000       8.22969000       1.00000000  6.69550000E-04  5.42020000E-06       0.30000000     999.00000000     999.00000000  CUNIT
  3  4 1 1  nodelay      -5.76000000       6.40080000       1.00000000  6.69550000E-04  5.42020000E-06       0.30000000     999.00000000     999.00000000  CUNIT
  4  5 1 1  nodelay      -6.10000000       2.74320000       1.00000000  1.27530000E-04  5.42020000E-06       0.30000000     999.00000000     999.00000000  NODELAY
  5  7 1 1  nodelay      -6.10000000       0.60960000       1.00000000  1.27530000E-04  5.42020000E-06       0.30000000     999.00000000     999.00000000  NODELAY
  6  8 1 1  nodelay      -6.10000000       5.18170000       1.00000000       0.00121160  5.42020000E-06       0.30000000     999.00000000     999.00000000  AQUITARD
  7  9 1 1  nodelay      -6.10000000       8.53449000       1.00000000       0.00121160  5.42020000E-06       0.30000000     999.00000000     999.00000000  AQUITARD
  8  10 1 1  nodelay      -6.10000000       5.48640000       1.00000000       0.00121160  5.42020000E-06       0.30000000     999.00000000     999.00000000  AQUITARD
  9  12 1 1  nodelay      -6.71000000       7.62010000       1.00000000  1.27530000E-04  5.42020000E-06       0.30000000     999.00000000     999.00000000  NODELAY
  10  14 1 1  nodelay      -6.71000000       0.91440000       1.00000000  1.27530000E-04  5.42020000E-06       0.30000000     999.00000000     999.00000000  NODELAY
  11  5 1 1  delay      -6.10000000       2.74320000       1.92000000  4.78250000E-04  5.42020000E-06       0.30000000  4.57000000E-06       6.77000000  DELAY
  12  12 1 1  delay      -6.10000000       3.04800000       1.66000000  4.78250000E-04  5.42020000E-06       0.30000000  4.57000000E-06       6.77000000  DELAY
  13  14 1 1  delay      -6.71000000       2.74320000       2.85000000  4.78250000E-04  5.42020000E-06       0.30000000  4.57000000E-06       5.55000000  DELAY
END packagedata

