# File generated by Flopy version 3.3.5 on 03/04/2022 at 11:13:50.
BEGIN options
  LENGTH_UNITS  meters
END options

BEGIN dimensions
  NLAY  14
  NROW  1
  NCOL  1
END dimensions

BEGIN griddata
  delr
    CONSTANT       1.00000000
  delc
    CONSTANT       1.00000000
  top
    CONSTANT       0.00000000
  botm  LAYERED
    CONSTANT     -36.88110000
    CONSTANT     -42.36760000
    CONSTANT     -50.59730000
    CONSTANT     -56.99810000
    CONSTANT     -69.79980000
    CONSTANT     -70.10460000
    CONSTANT     -92.05040000
    CONSTANT     -97.23210000
    CONSTANT    -105.76660000
    CONSTANT    -111.25300000
    CONSTANT    -111.55780000
    CONSTANT    -278.89450000
    CONSTANT    -279.19930000
    CONSTANT    -332.53980000
END griddata

