# File generated by Flopy version 3.3.5 on 03/04/2022 at 11:13:50.
BEGIN options
  SAVE_SPECIFIC_DISCHARGE
END options

BEGIN griddata
  icelltype
    CONSTANT  0
  k  LAYERED
    CONSTANT       0.00914000
    CONSTANT  3.66000000E-06
    CONSTANT  3.66000000E-06
    CONSTANT  3.66000000E-06
    CONSTANT       0.00914000
    CONSTANT       0.00914000
    CONSTANT       0.00914000
    CONSTANT  4.57000000E-06
    CONSTANT  4.57000000E-06
    CONSTANT  4.57000000E-06
    CONSTANT       0.00914000
    CONSTANT       0.00914000
    CONSTANT       0.00914000
    CONSTANT       0.00914000
  k33  LAYERED
    CONSTANT       0.00914000
    CONSTANT  3.66000000E-06
    CONSTANT  3.66000000E-06
    CONSTANT  3.66000000E-06
    CONSTANT       0.00914000
    CONSTANT       0.00914000
    CONSTANT       0.00914000
    CONSTANT  4.57000000E-06
    CONSTANT  4.57000000E-06
    CONSTANT  4.57000000E-06
    CONSTANT       0.00914000
    CONSTANT       0.00914000
    CONSTANT       0.00914000
    CONSTANT       0.00914000
END griddata

