# File generated by Flopy version 3.3.5 on 03/04/2022 at 11:18:19.
BEGIN options
  FIRST_ORDER_DECAY
  SORPTION  linear
END options

BEGIN griddata
  porosity
    CONSTANT       0.25000000
  decay
    CONSTANT       0.00200000
  decay_sorbed
    CONSTANT       0.00200000
  bulk_density
    CONSTANT       0.25000000
  distcoef
    CONSTANT       4.00000000
END griddata

