# File generated by Flopy version 3.3.5 on 03/04/2022 at 11:18:19.
BEGIN options
END options

BEGIN timing
  TDIS6  ex-gwt-mt3dms-p01d.tdis
END timing

BEGIN models
  gwf6  gwf-p01-mf6.nam  gwf-p01-mf6
  gwt6  gwt-p01-mf6.nam  gwt-p01-mf6
END models

BEGIN exchanges
  GWF6-GWT6  p01-mf6.gwfgwt  gwf-p01-mf6  gwt-p01-mf6
END exchanges

BEGIN solutiongroup  1
  ims6  gwf-p01-mf6.ims  gwf-p01-mf6
  ims6  gwt-p01-mf6.ims  gwt-p01-mf6
END solutiongroup  1

