# File generated by Flopy version 3.3.5 on 03/04/2022 at 11:18:33.
BEGIN options
END options

BEGIN dimensions
  MAXBOUND  120
END dimensions

BEGIN period  1
  1 1 1       0.00000000
  1 1 31       0.00000000
  1 2 1       0.00000000
  1 2 31       0.00000000
  1 3 1       0.00000000
  1 3 31       0.00000000
  1 4 1       0.00000000
  1 4 31       0.00000000
  1 5 1       0.00000000
  1 5 31       0.00000000
  1 6 1       0.00000000
  1 6 31       0.00000000
  1 7 1       0.00000000
  1 7 31       0.00000000
  1 8 1       0.00000000
  1 8 31       0.00000000
  1 9 1       0.00000000
  1 9 31       0.00000000
  1 10 1       0.00000000
  1 10 31       0.00000000
  1 11 1       0.00000000
  1 11 31       0.00000000
  1 12 1       0.00000000
  1 12 31       0.00000000
  1 13 1       0.00000000
  1 13 31       0.00000000
  1 14 1       0.00000000
  1 14 31       0.00000000
  1 15 1       0.00000000
  1 15 31       0.00000000
  1 16 1       0.00000000
  1 16 31       0.00000000
  1 17 1       0.00000000
  1 17 31       0.00000000
  1 18 1       0.00000000
  1 18 31       0.00000000
  1 19 1       0.00000000
  1 19 31       0.00000000
  1 20 1       0.00000000
  1 20 31       0.00000000
  1 21 1       0.00000000
  1 21 31       0.00000000
  1 22 1       0.00000000
  1 22 31       0.00000000
  1 23 1       0.00000000
  1 23 31       0.00000000
  1 24 1       0.00000000
  1 24 31       0.00000000
  1 25 1       0.00000000
  1 25 31       0.00000000
  1 26 1       0.00000000
  1 26 31       0.00000000
  1 27 1       0.00000000
  1 27 31       0.00000000
  1 28 1       0.00000000
  1 28 31       0.00000000
  1 29 1       0.00000000
  1 29 31       0.00000000
  1 30 1       0.00000000
  1 30 31       0.00000000
  1 31 1       0.00000000
  1 31 31       0.00000000
  1 1 2       0.00000000
  1 31 2       0.00000000
  1 1 3       0.00000000
  1 31 3       0.00000000
  1 1 4       0.00000000
  1 31 4       0.00000000
  1 1 5       0.00000000
  1 31 5       0.00000000
  1 1 6       0.00000000
  1 31 6       0.00000000
  1 1 7       0.00000000
  1 31 7       0.00000000
  1 1 8       0.00000000
  1 31 8       0.00000000
  1 1 9       0.00000000
  1 31 9       0.00000000
  1 1 10       0.00000000
  1 31 10       0.00000000
  1 1 11       0.00000000
  1 31 11       0.00000000
  1 1 12       0.00000000
  1 31 12       0.00000000
  1 1 13       0.00000000
  1 31 13       0.00000000
  1 1 14       0.00000000
  1 31 14       0.00000000
  1 1 15       0.00000000
  1 31 15       0.00000000
  1 1 16       0.00000000
  1 31 16       0.00000000
  1 1 17       0.00000000
  1 31 17       0.00000000
  1 1 18       0.00000000
  1 31 18       0.00000000
  1 1 19       0.00000000
  1 31 19       0.00000000
  1 1 20       0.00000000
  1 31 20       0.00000000
  1 1 21       0.00000000
  1 31 21       0.00000000
  1 1 22       0.00000000
  1 31 22       0.00000000
  1 1 23       0.00000000
  1 31 23       0.00000000
  1 1 24       0.00000000
  1 31 24       0.00000000
  1 1 25       0.00000000
  1 31 25       0.00000000
  1 1 26       0.00000000
  1 31 26       0.00000000
  1 1 27       0.00000000
  1 31 27       0.00000000
  1 1 28       0.00000000
  1 31 28       0.00000000
  1 1 29       0.00000000
  1 31 29       0.00000000
  1 1 30       0.00000000
  1 31 30       0.00000000
END period  1

