# File generated by Flopy version 3.3.5 on 03/04/2022 at 11:18:33.
BEGIN options
  XT3D_OFF
END options

BEGIN griddata
  alh
    CONSTANT     100.00000000
  ath1
    CONSTANT     100.00000000
END griddata

