# File generated by Flopy version 3.3.5 on 03/04/2022 at 11:18:33.
BEGIN options
END options

BEGIN continuous  FILEOUT  gwt_p06-mf6.obs.csv
  bckgrnd_cn  concentration  1 16 16
END continuous  FILEOUT  gwt_p06-mf6.obs.csv

