# File generated by Flopy version 3.3.5 on 03/04/2022 at 11:17:47.
BEGIN options
  LENGTH_UNITS  meters
END options

BEGIN dimensions
  NLAY  1
  NCPL  121
  NVERT  148
END dimensions

BEGIN griddata
  top
    CONSTANT       0.00000000
  botm
    CONSTANT    -100.00000000
END griddata

BEGIN vertices
  1       0.00000000     700.00000000
  2     100.00000000     700.00000000
  3     100.00000000     600.00000000
  4       0.00000000     600.00000000
  5     200.00000000     700.00000000
  6     200.00000000     600.00000000
  7     300.00000000     700.00000000
  8     300.00000000     600.00000000
  9     400.00000000     700.00000000
  10     400.00000000     600.00000000
  11     500.00000000     700.00000000
  12     500.00000000     600.00000000
  13     600.00000000     700.00000000
  14     600.00000000     600.00000000
  15     700.00000000     700.00000000
  16     700.00000000     600.00000000
  17     100.00000000     500.00000000
  18       0.00000000     500.00000000
  19     200.00000000     500.00000000
  20     300.00000000     500.00000000
  21     400.00000000     500.00000000
  22     500.00000000     500.00000000
  23     600.00000000     500.00000000
  24     700.00000000     500.00000000
  25     100.00000000     400.00000000
  26       0.00000000     400.00000000
  27     200.00000000     400.00000000
  28     600.00000000     400.00000000
  29     500.00000000     400.00000000
  30     700.00000000     400.00000000
  31     100.00000000     300.00000000
  32       0.00000000     300.00000000
  33     200.00000000     300.00000000
  34     600.00000000     300.00000000
  35     500.00000000     300.00000000
  36     700.00000000     300.00000000
  37     100.00000000     200.00000000
  38       0.00000000     200.00000000
  39     200.00000000     200.00000000
  40     600.00000000     200.00000000
  41     500.00000000     200.00000000
  42     700.00000000     200.00000000
  43     100.00000000     100.00000000
  44       0.00000000     100.00000000
  45     200.00000000     100.00000000
  46     300.00000000     200.00000000
  47     300.00000000     100.00000000
  48     400.00000000     200.00000000
  49     400.00000000     100.00000000
  50     500.00000000     100.00000000
  51     600.00000000     100.00000000
  52     700.00000000     100.00000000
  53     100.00000000       0.00000000
  54       0.00000000       0.00000000
  55     200.00000000       0.00000000
  56     300.00000000       0.00000000
  57     400.00000000       0.00000000
  58     500.00000000       0.00000000
  59     600.00000000       0.00000000
  60     700.00000000       0.00000000
  61     233.33333333     500.00000000
  62     233.33333333     466.66666667
  63     200.00000000     466.66666667
  64     266.66666667     500.00000000
  65     266.66666667     466.66666667
  66     300.00000000     466.66666667
  67     333.33333333     500.00000000
  68     333.33333333     466.66666667
  69     366.66666667     500.00000000
  70     366.66666667     466.66666667
  71     400.00000000     466.66666667
  72     433.33333333     500.00000000
  73     433.33333333     466.66666667
  74     466.66666667     500.00000000
  75     466.66666667     466.66666667
  76     500.00000000     466.66666667
  77     233.33333333     433.33333333
  78     200.00000000     433.33333333
  79     266.66666667     433.33333333
  80     300.00000000     433.33333333
  81     333.33333333     433.33333333
  82     366.66666667     433.33333333
  83     400.00000000     433.33333333
  84     433.33333333     433.33333333
  85     466.66666667     433.33333333
  86     500.00000000     433.33333333
  87     233.33333333     400.00000000
  88     266.66666667     400.00000000
  89     300.00000000     400.00000000
  90     333.33333333     400.00000000
  91     366.66666667     400.00000000
  92     400.00000000     400.00000000
  93     433.33333333     400.00000000
  94     466.66666667     400.00000000
  95     233.33333333     366.66666667
  96     200.00000000     366.66666667
  97     266.66666667     366.66666667
  98     300.00000000     366.66666667
  99     333.33333333     366.66666667
  100     366.66666667     366.66666667
  101     400.00000000     366.66666667
  102     433.33333333     366.66666667
  103     466.66666667     366.66666667
  104     500.00000000     366.66666667
  105     233.33333333     333.33333333
  106     200.00000000     333.33333333
  107     266.66666667     333.33333333
  108     300.00000000     333.33333333
  109     333.33333333     333.33333333
  110     366.66666667     333.33333333
  111     400.00000000     333.33333333
  112     433.33333333     333.33333333
  113     466.66666667     333.33333333
  114     500.00000000     333.33333333
  115     233.33333333     300.00000000
  116     266.66666667     300.00000000
  117     300.00000000     300.00000000
  118     333.33333333     300.00000000
  119     366.66666667     300.00000000
  120     400.00000000     300.00000000
  121     433.33333333     300.00000000
  122     466.66666667     300.00000000
  123     233.33333333     266.66666667
  124     200.00000000     266.66666667
  125     266.66666667     266.66666667
  126     300.00000000     266.66666667
  127     333.33333333     266.66666667
  128     366.66666667     266.66666667
  129     400.00000000     266.66666667
  130     433.33333333     266.66666667
  131     466.66666667     266.66666667
  132     500.00000000     266.66666667
  133     233.33333333     233.33333333
  134     200.00000000     233.33333333
  135     266.66666667     233.33333333
  136     300.00000000     233.33333333
  137     333.33333333     233.33333333
  138     366.66666667     233.33333333
  139     400.00000000     233.33333333
  140     433.33333333     233.33333333
  141     466.66666667     233.33333333
  142     500.00000000     233.33333333
  143     233.33333333     200.00000000
  144     266.66666667     200.00000000
  145     333.33333333     200.00000000
  146     366.66666667     200.00000000
  147     433.33333333     200.00000000
  148     466.66666667     200.00000000
END vertices

BEGIN cell2d
  1      50.00000000     650.00000000  5  1  2  3  4  1
  2     150.00000000     650.00000000  5  2  5  6  3  2
  3     250.00000000     650.00000000  5  5  7  8  6  5
  4     350.00000000     650.00000000  5  7  9  10  8  7
  5     450.00000000     650.00000000  5  9  11  12  10  9
  6     550.00000000     650.00000000  5  11  13  14  12  11
  7     650.00000000     650.00000000  5  13  15  16  14  13
  8      50.00000000     550.00000000  5  4  3  17  18  4
  9     150.00000000     550.00000000  5  3  6  19  17  3
  10     250.00000000     550.00000000  7  6  8  20  64  61  19  6
  11     350.00000000     550.00000000  7  8  10  21  69  67  20  8
  12     450.00000000     550.00000000  7  10  12  22  74  72  21  10
  13     550.00000000     550.00000000  5  12  14  23  22  12
  14     650.00000000     550.00000000  5  14  16  24  23  14
  15      50.00000000     450.00000000  5  18  17  25  26  18
  16     150.00000000     450.00000000  7  17  19  63  78  27  25  17
  17     550.00000000     450.00000000  7  22  23  28  29  86  76  22
  18     650.00000000     450.00000000  5  23  24  30  28  23
  19      50.00000000     350.00000000  5  26  25  31  32  26
  20     150.00000000     350.00000000  7  25  27  96  106  33  31  25
  21     550.00000000     350.00000000  7  29  28  34  35  114  104  29
  22     650.00000000     350.00000000  5  28  30  36  34  28
  23      50.00000000     250.00000000  5  32  31  37  38  32
  24     150.00000000     250.00000000  7  31  33  124  134  39  37  31
  25     550.00000000     250.00000000  7  35  34  40  41  142  132  35
  26     650.00000000     250.00000000  5  34  36  42  40  34
  27      50.00000000     150.00000000  5  38  37  43  44  38
  28     150.00000000     150.00000000  5  37  39  45  43  37
  29     250.00000000     150.00000000  7  39  143  144  46  47  45  39
  30     350.00000000     150.00000000  7  46  145  146  48  49  47  46
  31     450.00000000     150.00000000  7  48  147  148  41  50  49  48
  32     550.00000000     150.00000000  5  41  40  51  50  41
  33     650.00000000     150.00000000  5  40  42  52  51  40
  34      50.00000000      50.00000000  5  44  43  53  54  44
  35     150.00000000      50.00000000  5  43  45  55  53  43
  36     250.00000000      50.00000000  5  45  47  56  55  45
  37     350.00000000      50.00000000  5  47  49  57  56  47
  38     450.00000000      50.00000000  5  49  50  58  57  49
  39     550.00000000      50.00000000  5  50  51  59  58  50
  40     650.00000000      50.00000000  5  51  52  60  59  51
  41     216.66666667     483.33333333  5  19  61  62  63  19
  42     250.00000000     483.33333333  5  61  64  65  62  61
  43     283.33333333     483.33333333  5  64  20  66  65  64
  44     316.66666667     483.33333333  5  20  67  68  66  20
  45     350.00000000     483.33333333  5  67  69  70  68  67
  46     383.33333333     483.33333333  5  69  21  71  70  69
  47     416.66666667     483.33333333  5  21  72  73  71  21
  48     450.00000000     483.33333333  5  72  74  75  73  72
  49     483.33333333     483.33333333  5  74  22  76  75  74
  50     216.66666667     450.00000000  5  63  62  77  78  63
  51     250.00000000     450.00000000  5  62  65  79  77  62
  52     283.33333333     450.00000000  5  65  66  80  79  65
  53     316.66666667     450.00000000  5  66  68  81  80  66
  54     350.00000000     450.00000000  5  68  70  82  81  68
  55     383.33333333     450.00000000  5  70  71  83  82  70
  56     416.66666667     450.00000000  5  71  73  84  83  71
  57     450.00000000     450.00000000  5  73  75  85  84  73
  58     483.33333333     450.00000000  5  75  76  86  85  75
  59     216.66666667     416.66666667  5  78  77  87  27  78
  60     250.00000000     416.66666667  5  77  79  88  87  77
  61     283.33333333     416.66666667  5  79  80  89  88  79
  62     316.66666667     416.66666667  5  80  81  90  89  80
  63     350.00000000     416.66666667  5  81  82  91  90  81
  64     383.33333333     416.66666667  5  82  83  92  91  82
  65     416.66666667     416.66666667  5  83  84  93  92  83
  66     450.00000000     416.66666667  5  84  85  94  93  84
  67     483.33333333     416.66666667  5  85  86  29  94  85
  68     216.66666667     383.33333333  5  27  87  95  96  27
  69     250.00000000     383.33333333  5  87  88  97  95  87
  70     283.33333333     383.33333333  5  88  89  98  97  88
  71     316.66666667     383.33333333  5  89  90  99  98  89
  72     350.00000000     383.33333333  5  90  91  100  99  90
  73     383.33333333     383.33333333  5  91  92  101  100  91
  74     416.66666667     383.33333333  5  92  93  102  101  92
  75     450.00000000     383.33333333  5  93  94  103  102  93
  76     483.33333333     383.33333333  5  94  29  104  103  94
  77     216.66666667     350.00000000  5  96  95  105  106  96
  78     250.00000000     350.00000000  5  95  97  107  105  95
  79     283.33333333     350.00000000  5  97  98  108  107  97
  80     316.66666667     350.00000000  5  98  99  109  108  98
  81     350.00000000     350.00000000  5  99  100  110  109  99
  82     383.33333333     350.00000000  5  100  101  111  110  100
  83     416.66666667     350.00000000  5  101  102  112  111  101
  84     450.00000000     350.00000000  5  102  103  113  112  102
  85     483.33333333     350.00000000  5  103  104  114  113  103
  86     216.66666667     316.66666667  5  106  105  115  33  106
  87     250.00000000     316.66666667  5  105  107  116  115  105
  88     283.33333333     316.66666667  5  107  108  117  116  107
  89     316.66666667     316.66666667  5  108  109  118  117  108
  90     350.00000000     316.66666667  5  109  110  119  118  109
  91     383.33333333     316.66666667  5  110  111  120  119  110
  92     416.66666667     316.66666667  5  111  112  121  120  111
  93     450.00000000     316.66666667  5  112  113  122  121  112
  94     483.33333333     316.66666667  5  113  114  35  122  113
  95     216.66666667     283.33333333  5  33  115  123  124  33
  96     250.00000000     283.33333333  5  115  116  125  123  115
  97     283.33333333     283.33333333  5  116  117  126  125  116
  98     316.66666667     283.33333333  5  117  118  127  126  117
  99     350.00000000     283.33333333  5  118  119  128  127  118
  100     383.33333333     283.33333333  5  119  120  129  128  119
  101     416.66666667     283.33333333  5  120  121  130  129  120
  102     450.00000000     283.33333333  5  121  122  131  130  121
  103     483.33333333     283.33333333  5  122  35  132  131  122
  104     216.66666667     250.00000000  5  124  123  133  134  124
  105     250.00000000     250.00000000  5  123  125  135  133  123
  106     283.33333333     250.00000000  5  125  126  136  135  125
  107     316.66666667     250.00000000  5  126  127  137  136  126
  108     350.00000000     250.00000000  5  127  128  138  137  127
  109     383.33333333     250.00000000  5  128  129  139  138  128
  110     416.66666667     250.00000000  5  129  130  140  139  129
  111     450.00000000     250.00000000  5  130  131  141  140  130
  112     483.33333333     250.00000000  5  131  132  142  141  131
  113     216.66666667     216.66666667  5  134  133  143  39  134
  114     250.00000000     216.66666667  5  133  135  144  143  133
  115     283.33333333     216.66666667  5  135  136  46  144  135
  116     316.66666667     216.66666667  5  136  137  145  46  136
  117     350.00000000     216.66666667  5  137  138  146  145  137
  118     383.33333333     216.66666667  5  138  139  48  146  138
  119     416.66666667     216.66666667  5  139  140  147  48  139
  120     450.00000000     216.66666667  5  140  141  148  147  140
  121     483.33333333     216.66666667  5  141  142  41  148  141
END cell2d

