# File generated by Flopy version 3.3.5 on 03/04/2022 at 11:17:47.
BEGIN options
END options

BEGIN timing
  TDIS6  ex-gwf-u1disv-x.tdis
END timing

BEGIN models
  gwf6  ex-gwf-u1disv-x.nam  ex-gwf-u1disv-x
END models

BEGIN exchanges
END exchanges

BEGIN solutiongroup  1
  ims6  ex-gwf-u1disv-x.ims  ex-gwf-u1disv-x
END solutiongroup  1

