# Name file for MT3DMS, generated by Flopy version 3.3.5.
LIST              16  trans.list
FTL               10  ../mf2005/mt3d_link.ftl 
BTN               31  trans.btn
ADV               32  trans.adv
DSP               33  trans.dsp
RCT               36  trans.rct
SSM               34  trans.ssm
GCG               35  trans.gcg
