# File generated by Flopy version 3.3.5 on 03/04/2022 at 11:18:50.
BEGIN options
  PRINT_FLOWS
  BUDGET  FILEOUT  flow.mvr.bud
END options

BEGIN dimensions
  MAXMVR  2
  MAXPACKAGES  1
END dimensions

BEGIN packages
  maw-1
END packages

BEGIN period  1
  MAW-1  2  MAW-1  3  factor       0.50000000
  MAW-1  2  MAW-1  4  factor       0.50000000
END period  1

