# DIS package for MODFLOW-2005 generated by Flopy 3.3.5
         1         1       401         2         4         2
  0
CONSTANT    2.500000E+00                           #delr                          
CONSTANT    1.000000E+00                           #delc                          
CONSTANT    1.000000E+00                           #model_top                     
CONSTANT    0.000000E+00                           #botm layer 1                  
   1000.000000             1  1.000000  SS 
   9000.000000             1  1.000000  SS 
