# Name file for MODFLOW-2005, generated by Flopy version 3.3.5.
#xll:0.0; yll:0.0; rotation:0.0; units:meters; lenuni:2; start_datetime:1-1-1970
LIST               2  p03-mf.list
DIS               11  p03-mf.dis
BAS6              13  p03-mf.bas
LPF               15  p03-mf.lpf
WEL               20  p03-mf.wel
PCG               27  p03-mf.pcg
LMT6              30  p03-mf.lmt6
