# File generated by Flopy version 3.3.5 on 03/04/2022 at 11:14:03.
BEGIN options
  SAVE_FLOWS
END options

BEGIN packages
  DIS6  .\ex-gwf-fhb.dis  dis
  NPF6  .\ex-gwf-fhb.npf  npf
  IC6  .\ex-gwf-fhb.ic  ic
  STO6  .\ex-gwf-fhb.sto  sto
  CHD6  .\ex-gwf-fhb.chd  chd
  WEL6  .\ex-gwf-fhb.wel  wel
  OC6  .\ex-gwf-fhb.oc  oc
  OBS6  .\ex-gwf-fhb.obs  obs_0
END packages

