# File generated by Flopy version 3.3.5 on 03/04/2022 at 11:14:03.
BEGIN options
END options

BEGIN continuous  FILEOUT  ex-gwf-fhb.obs.flow.csv
  icf1  flow-ja-face  1 2 2  1 2 1
END continuous  FILEOUT  ex-gwf-fhb.obs.flow.csv

BEGIN continuous  FILEOUT  ex-gwf-fhb.obs.head.csv
  h1_2_1  head  1 2 1
  h1_2_10  head  1 2 10
END continuous  FILEOUT  ex-gwf-fhb.obs.head.csv

