# File generated by Flopy version 3.3.5 on 03/04/2022 at 11:14:03.
BEGIN options
  BUDGET  FILEOUT  ex-gwf-fhb.cbc
  HEAD  FILEOUT  ex-gwf-fhb.hds
END options

BEGIN period  1
  SAVE  HEAD  ALL
  SAVE  BUDGET  ALL
END period  1

