# File generated by Flopy version 3.3.5 on 03/04/2022 at 11:14:03.
BEGIN options
  LENGTH_UNITS  meters
END options

BEGIN dimensions
  NLAY  1
  NROW  3
  NCOL  10
END dimensions

BEGIN griddata
  delr
    CONSTANT    1000.00000000
  delc
    CONSTANT    1000.00000000
  top
    CONSTANT      50.00000000
  botm
    CONSTANT    -200.00000000
END griddata

