# File generated by Flopy version 3.3.5 on 03/04/2022 at 11:14:03.
BEGIN options
  TS6  FILEIN  ex-gwf-fhb.chd.ts
END options

BEGIN dimensions
  MAXBOUND  3
END dimensions

BEGIN period  1
  1 1 10  CHDHEAD
  1 2 10  CHDHEAD
  1 3 10  CHDHEAD
END period  1

