# File generated by Flopy version 3.3.5 on 03/04/2022 at 11:14:03.
BEGIN options
  TS6  FILEIN  ex-gwf-fhb.wel.ts
END options

BEGIN dimensions
  MAXBOUND  1
END dimensions

BEGIN period  1
  1 2 1  FLOWRATE
END period  1

