# File generated by Flopy version 3.3.5 on 03/04/2022 at 11:14:03.
BEGIN options
  STORAGECOEFFICIENT
END options

BEGIN griddata
  iconvert
    CONSTANT  0
  ss
    CONSTANT  1.00000000E-06
END griddata

BEGIN period  1
  TRANSIENT
END period  1

