# File generated by Flopy version 3.3.5 on 03/04/2022 at 11:14:03.
BEGIN options
END options

BEGIN timing
  TDIS6  ex-gwf-fhb.tdis
END timing

BEGIN models
  gwf6  ex-gwf-fhb.nam  ex-gwf-fhb
END models

BEGIN exchanges
END exchanges

BEGIN solutiongroup  1
  ims6  ex-gwf-fhb.ims  ex-gwf-fhb
END solutiongroup  1

