# File generated by Flopy version 3.3.5 on 03/04/2022 at 11:14:01.
BEGIN options
END options

BEGIN period  1
  PRINT  BUDGET  LAST
END period  1

