# File generated by Flopy version 3.3.5 on 03/04/2022 at 11:14:01.
BEGIN options
  NEWTON
END options

BEGIN packages
  DIS6  .\ex-gwf-drn-p01.dis  dis
  NPF6  .\ex-gwf-drn-p01.npf  npf
  STO6  .\ex-gwf-drn-p01.sto  sto
  IC6  .\ex-gwf-drn-p01.ic  ic
  GHB6  .\ex-gwf-drn-p01.ghb  ghb_0
  WEL6  .\ex-gwf-drn-p01.wel  wel_0
  SFR6  .\ex-gwf-drn-p01.sfr  sfr-1
  UZF6  .\ex-gwf-drn-p01.uzf  uzf-1
  MVR6  .\ex-gwf-drn-p01.mvr  mvr
  OC6  .\ex-gwf-drn-p01.oc  oc
END packages

