# File generated by Flopy version 3.3.5 on 03/04/2022 at 11:13:36.
BEGIN options
  BOUNDNAMES
  TS6  FILEIN  ex-gwf-advtidal.riv.ts
END options

BEGIN dimensions
  MAXBOUND  20
END dimensions

BEGIN period  1
  1 3 1  river_stage_1    1001.00000000      35.90000000  
  1 4 2  river_stage_1    1002.00000000      35.80000000  
  1 5 3  river_stage_1    1003.00000000      35.70000000  
  1 5 4  river_stage_1    1004.00000000      35.60000000  
  1 6 5  river_stage_1    1005.00000000      35.50000000  
  1 6 6  river_stage_1    1006.00000000      35.40000000  riv1_c6
  1 6 7  river_stage_1    1007.00000000      35.30000000  riv1_c7
  1 5 8  river_stage_1    1008.00000000      35.20000000  
  1 5 9  river_stage_1    1009.00000000      35.10000000  
  1 5 10  river_stage_1    1010.00000000      35.00000000  
  1 10 1  river_stage_2    1001.00000000      36.90000000  riv2_upper
  1 9 2  river_stage_2    1002.00000000      36.80000000  riv2_upper
  1 8 3  river_stage_2    1003.00000000      36.70000000  riv2_upper
  1 7 4  river_stage_2    1004.00000000      36.60000000  
  1 7 5  river_stage_2    1005.00000000      36.50000000  
  1 6 6  river_stage_2    1006.00000000      36.40000000  riv2_c6
  1 6 7  river_stage_2    1007.00000000      36.30000000  riv2_c7
  1 7 8  river_stage_2    1008.00000000      36.20000000  
  1 7 9  river_stage_2    1009.00000000      36.10000000  
  1 7 10  river_stage_2    1010.00000000      36.00000000  
END period  1

