# File generated by Flopy version 3.3.5 on 03/04/2022 at 11:13:36.
BEGIN options
END options

BEGIN griddata
  iconvert
    CONSTANT  1
  ss
    CONSTANT  1.00000000E-06
  sy
    CONSTANT       0.20000000
END griddata

BEGIN period  1
  STEADY-STATE
END period  1

BEGIN period  2
  TRANSIENT
END period  2

