# File generated by Flopy version 3.3.5 on 03/04/2022 at 11:13:36.
BEGIN options
  BOUNDNAMES
  TS6  FILEIN  ex-gwf-advtidal.ghb.ts
  OBS6  FILEIN  ex-gwf-advtidal.ghb.obs
END options

BEGIN dimensions
  MAXBOUND  30
END dimensions

BEGIN period  1
  2 1 10  tides      15.00000000  ESTUARY-L2
  2 2 10  tides      15.00000000  ESTUARY-L2
  2 3 10  tides      15.00000000  ESTUARY-L2
  2 4 10  tides      15.00000000  ESTUARY-L2
  2 5 10  tides      15.00000000  ESTUARY-L2
  2 6 10  tides      15.00000000  ESTUARY-L2
  2 7 10  tides      15.00000000  ESTUARY-L2
  2 8 10  tides      15.00000000  ESTUARY-L2
  2 9 10  tides      15.00000000  ESTUARY-L2
  2 10 10  tides      15.00000000  ESTUARY-L2
  2 11 10  tides      15.00000000  ESTUARY-L2
  2 12 10  tides      15.00000000  ESTUARY-L2
  2 13 10  tides      15.00000000  ESTUARY-L2
  2 14 10  tides      15.00000000  ESTUARY-L2
  2 15 10  tides      15.00000000  ESTUARY-L2
  3 1 10  tides    1500.00000000  ESTUARY-L3
  3 2 10  tides    1500.00000000  ESTUARY-L3
  3 3 10  tides    1500.00000000  ESTUARY-L3
  3 4 10  tides    1500.00000000  ESTUARY-L3
  3 5 10  tides    1500.00000000  ESTUARY-L3
  3 6 10  tides    1500.00000000  ESTUARY-L3
  3 7 10  tides    1500.00000000  ESTUARY-L3
  3 8 10  tides    1500.00000000  ESTUARY-L3
  3 9 10  tides    1500.00000000  ESTUARY-L3
  3 10 10  tides    1500.00000000  ESTUARY-L3
  3 11 10  tides    1500.00000000  ESTUARY-L3
  3 12 10  tides    1500.00000000  ESTUARY-L3
  3 13 10  tides    1500.00000000  ESTUARY-L3
  3 14 10  tides    1500.00000000  ESTUARY-L3
  3 15 10  tides    1500.00000000  ESTUARY-L3
END period  1

