# File generated by Flopy version 3.3.5 on 03/04/2022 at 11:13:36.
BEGIN options
  VARIABLECV  DEWATERED
  PERCHED
  SAVE_SPECIFIC_DISCHARGE
END options

BEGIN griddata
  icelltype  LAYERED
    CONSTANT  1
    CONSTANT  0
    CONSTANT  0
  k  LAYERED
    CONSTANT       5.00000000
    CONSTANT       0.10000000
    CONSTANT       4.00000000
  k33  LAYERED
    CONSTANT       0.50000000
    CONSTANT       0.00500000
    CONSTANT       0.10000000
END griddata

