# File generated by Flopy version 3.3.5 on 03/04/2022 at 11:13:36.
BEGIN options
  FIXED_CELL
  auxiliary  MULTIPLIER
  AUXMULTNAME  multiplier
  BOUNDNAMES
  PRINT_INPUT
  PRINT_FLOWS
  SAVE_FLOWS
  TS6  FILEIN  ex-gwf-advtidal.rch3.ts
END options

BEGIN dimensions
  MAXBOUND  54
END dimensions

BEGIN period  1
  1 1 10  rch_3       0.50000000
  1 2 9  rch_3       0.50000000
  1 2 10  rch_3       1.00000000
  1 3 8  rch_3       0.50000000
  1 3 9  rch_3       1.00000000
  1 3 10  rch_3       1.00000000
  1 4 7  rch_3       0.50000000
  1 4 8  rch_3       1.00000000
  1 4 9  rch_3       1.00000000
  1 4 10  rch_3       1.00000000
  1 5 7  rch_3       1.00000000
  1 5 8  rch_3       1.00000000
  1 5 9  rch_3       1.00000000
  1 5 10  rch_3       1.00000000
  1 6 7  rch_3       1.00000000
  1 6 8  rch_3       1.00000000
  1 6 9  rch_3       1.00000000
  1 6 10  rch_3       1.00000000
  1 7 7  rch_3       1.00000000
  1 7 8  rch_3       1.00000000
  1 7 9  rch_3       1.00000000
  1 7 10  rch_3       1.00000000
  1 8 7  rch_3       1.00000000
  1 8 8  rch_3       1.00000000
  1 8 9  rch_3       1.00000000
  1 8 10  rch_3       1.00000000
  1 9 7  rch_3       1.00000000
  1 9 8  rch_3       1.00000000
  1 9 9  rch_3       1.00000000
  1 9 10  rch_3       1.00000000
  1 10 7  rch_3       1.00000000
  1 10 8  rch_3       1.00000000
  1 10 9  rch_3       1.00000000
  1 10 10  rch_3       1.00000000
  1 11 7  rch_3       1.00000000
  1 11 8  rch_3       1.00000000
  1 11 9  rch_3       1.00000000
  1 11 10  rch_3       1.00000000
  1 12 7  rch_3       1.00000000
  1 12 8  rch_3       1.00000000
  1 12 9  rch_3       1.00000000
  1 12 10  rch_3       1.00000000
  1 13 7  rch_3       1.00000000
  1 13 8  rch_3       1.00000000
  1 13 9  rch_3       1.00000000
  1 13 10  rch_3       1.00000000
  1 14 7  rch_3       1.00000000
  1 14 8  rch_3       1.00000000
  1 14 9  rch_3       1.00000000
  1 14 10  rch_3       1.00000000
  1 15 7  rch_3       1.00000000
  1 15 8  rch_3       1.00000000
  1 15 9  rch_3       1.00000000
  1 15 10  rch_3       1.00000000
END period  1

