# File generated by Flopy version 3.3.5 on 03/04/2022 at 11:13:36.
BEGIN options
END options

BEGIN timing
  TDIS6  ex-gwf-advtidal.tdis
END timing

BEGIN models
  gwf6  ex-gwf-advtidal.nam  ex-gwf-advtidal
END models

BEGIN exchanges
END exchanges

BEGIN solutiongroup  1
  ims6  ex-gwf-advtidal.ims  ex-gwf-advtidal
END solutiongroup  1

