# File generated by Flopy version 3.3.5 on 03/04/2022 at 11:18:13.
BEGIN options
END options

BEGIN dimensions
  MAXBOUND  480
END dimensions

BEGIN period  1
  1 1 30       0.00000000
  1 2 30       0.00000000
  1 3 30       0.00000000
  1 4 30       0.00000000
  1 5 30       0.00000000
  1 6 30       0.00000000
  1 7 30       0.00000000
  1 8 30       0.00000000
  1 9 30       0.00000000
  1 10 30       0.00000000
  1 11 30       0.00000000
  1 12 30       0.00000000
  2 1 30       0.00000000
  2 2 30       0.00000000
  2 3 30       0.00000000
  2 4 30       0.00000000
  2 5 30       0.00000000
  2 6 30       0.00000000
  2 7 30       0.00000000
  2 8 30       0.00000000
  2 9 30       0.00000000
  2 10 30       0.00000000
  2 11 30       0.00000000
  2 12 30       0.00000000
  3 1 30       0.00000000
  3 2 30       0.00000000
  3 3 30       0.00000000
  3 4 30       0.00000000
  3 5 30       0.00000000
  3 6 30       0.00000000
  3 7 30       0.00000000
  3 8 30       0.00000000
  3 9 30       0.00000000
  3 10 30       0.00000000
  3 11 30       0.00000000
  3 12 30       0.00000000
  4 1 30       0.00000000
  4 2 30       0.00000000
  4 3 30       0.00000000
  4 4 30       0.00000000
  4 5 30       0.00000000
  4 6 30       0.00000000
  4 7 30       0.00000000
  4 8 30       0.00000000
  4 9 30       0.00000000
  4 10 30       0.00000000
  4 11 30       0.00000000
  4 12 30       0.00000000
  5 1 30       0.00000000
  5 2 30       0.00000000
  5 3 30       0.00000000
  5 4 30       0.00000000
  5 5 30       0.00000000
  5 6 30       0.00000000
  5 7 30       0.00000000
  5 8 30       0.00000000
  5 9 30       0.00000000
  5 10 30       0.00000000
  5 11 30       0.00000000
  5 12 30       0.00000000
  6 1 30       0.00000000
  6 2 30       0.00000000
  6 3 30       0.00000000
  6 4 30       0.00000000
  6 5 30       0.00000000
  6 6 30       0.00000000
  6 7 30       0.00000000
  6 8 30       0.00000000
  6 9 30       0.00000000
  6 10 30       0.00000000
  6 11 30       0.00000000
  6 12 30       0.00000000
  7 1 30       0.00000000
  7 2 30       0.00000000
  7 3 30       0.00000000
  7 4 30       0.00000000
  7 5 30       0.00000000
  7 6 30       0.00000000
  7 7 30       0.00000000
  7 8 30       0.00000000
  7 9 30       0.00000000
  7 10 30       0.00000000
  7 11 30       0.00000000
  7 12 30       0.00000000
  8 1 30       0.00000000
  8 2 30       0.00000000
  8 3 30       0.00000000
  8 4 30       0.00000000
  8 5 30       0.00000000
  8 6 30       0.00000000
  8 7 30       0.00000000
  8 8 30       0.00000000
  8 9 30       0.00000000
  8 10 30       0.00000000
  8 11 30       0.00000000
  8 12 30       0.00000000
  9 1 30       0.00000000
  9 2 30       0.00000000
  9 3 30       0.00000000
  9 4 30       0.00000000
  9 5 30       0.00000000
  9 6 30       0.00000000
  9 7 30       0.00000000
  9 8 30       0.00000000
  9 9 30       0.00000000
  9 10 30       0.00000000
  9 11 30       0.00000000
  9 12 30       0.00000000
  10 1 30       0.00000000
  10 2 30       0.00000000
  10 3 30       0.00000000
  10 4 30       0.00000000
  10 5 30       0.00000000
  10 6 30       0.00000000
  10 7 30       0.00000000
  10 8 30       0.00000000
  10 9 30       0.00000000
  10 10 30       0.00000000
  10 11 30       0.00000000
  10 12 30       0.00000000
  11 1 30       0.00000000
  11 2 30       0.00000000
  11 3 30       0.00000000
  11 4 30       0.00000000
  11 5 30       0.00000000
  11 6 30       0.00000000
  11 7 30       0.00000000
  11 8 30       0.00000000
  11 9 30       0.00000000
  11 10 30       0.00000000
  11 11 30       0.00000000
  11 12 30       0.00000000
  12 1 30       0.00000000
  12 2 30       0.00000000
  12 3 30       0.00000000
  12 4 30       0.00000000
  12 5 30       0.00000000
  12 6 30       0.00000000
  12 7 30       0.00000000
  12 8 30       0.00000000
  12 9 30       0.00000000
  12 10 30       0.00000000
  12 11 30       0.00000000
  12 12 30       0.00000000
  13 1 30       0.00000000
  13 2 30       0.00000000
  13 3 30       0.00000000
  13 4 30       0.00000000
  13 5 30       0.00000000
  13 6 30       0.00000000
  13 7 30       0.00000000
  13 8 30       0.00000000
  13 9 30       0.00000000
  13 10 30       0.00000000
  13 11 30       0.00000000
  13 12 30       0.00000000
  14 1 30       0.00000000
  14 2 30       0.00000000
  14 3 30       0.00000000
  14 4 30       0.00000000
  14 5 30       0.00000000
  14 6 30       0.00000000
  14 7 30       0.00000000
  14 8 30       0.00000000
  14 9 30       0.00000000
  14 10 30       0.00000000
  14 11 30       0.00000000
  14 12 30       0.00000000
  15 1 30       0.00000000
  15 2 30       0.00000000
  15 3 30       0.00000000
  15 4 30       0.00000000
  15 5 30       0.00000000
  15 6 30       0.00000000
  15 7 30       0.00000000
  15 8 30       0.00000000
  15 9 30       0.00000000
  15 10 30       0.00000000
  15 11 30       0.00000000
  15 12 30       0.00000000
  16 1 30       0.00000000
  16 2 30       0.00000000
  16 3 30       0.00000000
  16 4 30       0.00000000
  16 5 30       0.00000000
  16 6 30       0.00000000
  16 7 30       0.00000000
  16 8 30       0.00000000
  16 9 30       0.00000000
  16 10 30       0.00000000
  16 11 30       0.00000000
  16 12 30       0.00000000
  17 1 30       0.00000000
  17 2 30       0.00000000
  17 3 30       0.00000000
  17 4 30       0.00000000
  17 5 30       0.00000000
  17 6 30       0.00000000
  17 7 30       0.00000000
  17 8 30       0.00000000
  17 9 30       0.00000000
  17 10 30       0.00000000
  17 11 30       0.00000000
  17 12 30       0.00000000
  18 1 30       0.00000000
  18 2 30       0.00000000
  18 3 30       0.00000000
  18 4 30       0.00000000
  18 5 30       0.00000000
  18 6 30       0.00000000
  18 7 30       0.00000000
  18 8 30       0.00000000
  18 9 30       0.00000000
  18 10 30       0.00000000
  18 11 30       0.00000000
  18 12 30       0.00000000
  19 1 30       0.00000000
  19 2 30       0.00000000
  19 3 30       0.00000000
  19 4 30       0.00000000
  19 5 30       0.00000000
  19 6 30       0.00000000
  19 7 30       0.00000000
  19 8 30       0.00000000
  19 9 30       0.00000000
  19 10 30       0.00000000
  19 11 30       0.00000000
  19 12 30       0.00000000
  20 1 30       0.00000000
  20 2 30       0.00000000
  20 3 30       0.00000000
  20 4 30       0.00000000
  20 5 30       0.00000000
  20 6 30       0.00000000
  20 7 30       0.00000000
  20 8 30       0.00000000
  20 9 30       0.00000000
  20 10 30       0.00000000
  20 11 30       0.00000000
  20 12 30       0.00000000
  21 1 30       0.00000000
  21 2 30       0.00000000
  21 3 30       0.00000000
  21 4 30       0.00000000
  21 5 30       0.00000000
  21 6 30       0.00000000
  21 7 30       0.00000000
  21 8 30       0.00000000
  21 9 30       0.00000000
  21 10 30       0.00000000
  21 11 30       0.00000000
  21 12 30       0.00000000
  22 1 30       0.00000000
  22 2 30       0.00000000
  22 3 30       0.00000000
  22 4 30       0.00000000
  22 5 30       0.00000000
  22 6 30       0.00000000
  22 7 30       0.00000000
  22 8 30       0.00000000
  22 9 30       0.00000000
  22 10 30       0.00000000
  22 11 30       0.00000000
  22 12 30       0.00000000
  23 1 30       0.00000000
  23 2 30       0.00000000
  23 3 30       0.00000000
  23 4 30       0.00000000
  23 5 30       0.00000000
  23 6 30       0.00000000
  23 7 30       0.00000000
  23 8 30       0.00000000
  23 9 30       0.00000000
  23 10 30       0.00000000
  23 11 30       0.00000000
  23 12 30       0.00000000
  24 1 30       0.00000000
  24 2 30       0.00000000
  24 3 30       0.00000000
  24 4 30       0.00000000
  24 5 30       0.00000000
  24 6 30       0.00000000
  24 7 30       0.00000000
  24 8 30       0.00000000
  24 9 30       0.00000000
  24 10 30       0.00000000
  24 11 30       0.00000000
  24 12 30       0.00000000
  25 1 30       0.00000000
  25 2 30       0.00000000
  25 3 30       0.00000000
  25 4 30       0.00000000
  25 5 30       0.00000000
  25 6 30       0.00000000
  25 7 30       0.00000000
  25 8 30       0.00000000
  25 9 30       0.00000000
  25 10 30       0.00000000
  25 11 30       0.00000000
  25 12 30       0.00000000
  26 1 30       0.00000000
  26 2 30       0.00000000
  26 3 30       0.00000000
  26 4 30       0.00000000
  26 5 30       0.00000000
  26 6 30       0.00000000
  26 7 30       0.00000000
  26 8 30       0.00000000
  26 9 30       0.00000000
  26 10 30       0.00000000
  26 11 30       0.00000000
  26 12 30       0.00000000
  27 1 30       0.00000000
  27 2 30       0.00000000
  27 3 30       0.00000000
  27 4 30       0.00000000
  27 5 30       0.00000000
  27 6 30       0.00000000
  27 7 30       0.00000000
  27 8 30       0.00000000
  27 9 30       0.00000000
  27 10 30       0.00000000
  27 11 30       0.00000000
  27 12 30       0.00000000
  28 1 30       0.00000000
  28 2 30       0.00000000
  28 3 30       0.00000000
  28 4 30       0.00000000
  28 5 30       0.00000000
  28 6 30       0.00000000
  28 7 30       0.00000000
  28 8 30       0.00000000
  28 9 30       0.00000000
  28 10 30       0.00000000
  28 11 30       0.00000000
  28 12 30       0.00000000
  29 1 30       0.00000000
  29 2 30       0.00000000
  29 3 30       0.00000000
  29 4 30       0.00000000
  29 5 30       0.00000000
  29 6 30       0.00000000
  29 7 30       0.00000000
  29 8 30       0.00000000
  29 9 30       0.00000000
  29 10 30       0.00000000
  29 11 30       0.00000000
  29 12 30       0.00000000
  30 1 30       0.00000000
  30 2 30       0.00000000
  30 3 30       0.00000000
  30 4 30       0.00000000
  30 5 30       0.00000000
  30 6 30       0.00000000
  30 7 30       0.00000000
  30 8 30       0.00000000
  30 9 30       0.00000000
  30 10 30       0.00000000
  30 11 30       0.00000000
  30 12 30       0.00000000
  31 1 30       0.00000000
  31 2 30       0.00000000
  31 3 30       0.00000000
  31 4 30       0.00000000
  31 5 30       0.00000000
  31 6 30       0.00000000
  31 7 30       0.00000000
  31 8 30       0.00000000
  31 9 30       0.00000000
  31 10 30       0.00000000
  31 11 30       0.00000000
  31 12 30       0.00000000
  32 1 30       0.00000000
  32 2 30       0.00000000
  32 3 30       0.00000000
  32 4 30       0.00000000
  32 5 30       0.00000000
  32 6 30       0.00000000
  32 7 30       0.00000000
  32 8 30       0.00000000
  32 9 30       0.00000000
  32 10 30       0.00000000
  32 11 30       0.00000000
  32 12 30       0.00000000
  33 1 30       0.00000000
  33 2 30       0.00000000
  33 3 30       0.00000000
  33 4 30       0.00000000
  33 5 30       0.00000000
  33 6 30       0.00000000
  33 7 30       0.00000000
  33 8 30       0.00000000
  33 9 30       0.00000000
  33 10 30       0.00000000
  33 11 30       0.00000000
  33 12 30       0.00000000
  34 1 30       0.00000000
  34 2 30       0.00000000
  34 3 30       0.00000000
  34 4 30       0.00000000
  34 5 30       0.00000000
  34 6 30       0.00000000
  34 7 30       0.00000000
  34 8 30       0.00000000
  34 9 30       0.00000000
  34 10 30       0.00000000
  34 11 30       0.00000000
  34 12 30       0.00000000
  35 1 30       0.00000000
  35 2 30       0.00000000
  35 3 30       0.00000000
  35 4 30       0.00000000
  35 5 30       0.00000000
  35 6 30       0.00000000
  35 7 30       0.00000000
  35 8 30       0.00000000
  35 9 30       0.00000000
  35 10 30       0.00000000
  35 11 30       0.00000000
  35 12 30       0.00000000
  36 1 30       0.00000000
  36 2 30       0.00000000
  36 3 30       0.00000000
  36 4 30       0.00000000
  36 5 30       0.00000000
  36 6 30       0.00000000
  36 7 30       0.00000000
  36 8 30       0.00000000
  36 9 30       0.00000000
  36 10 30       0.00000000
  36 11 30       0.00000000
  36 12 30       0.00000000
  37 1 30       0.00000000
  37 2 30       0.00000000
  37 3 30       0.00000000
  37 4 30       0.00000000
  37 5 30       0.00000000
  37 6 30       0.00000000
  37 7 30       0.00000000
  37 8 30       0.00000000
  37 9 30       0.00000000
  37 10 30       0.00000000
  37 11 30       0.00000000
  37 12 30       0.00000000
  38 1 30       0.00000000
  38 2 30       0.00000000
  38 3 30       0.00000000
  38 4 30       0.00000000
  38 5 30       0.00000000
  38 6 30       0.00000000
  38 7 30       0.00000000
  38 8 30       0.00000000
  38 9 30       0.00000000
  38 10 30       0.00000000
  38 11 30       0.00000000
  38 12 30       0.00000000
  39 1 30       0.00000000
  39 2 30       0.00000000
  39 3 30       0.00000000
  39 4 30       0.00000000
  39 5 30       0.00000000
  39 6 30       0.00000000
  39 7 30       0.00000000
  39 8 30       0.00000000
  39 9 30       0.00000000
  39 10 30       0.00000000
  39 11 30       0.00000000
  39 12 30       0.00000000
  40 1 30       0.00000000
  40 2 30       0.00000000
  40 3 30       0.00000000
  40 4 30       0.00000000
  40 5 30       0.00000000
  40 6 30       0.00000000
  40 7 30       0.00000000
  40 8 30       0.00000000
  40 9 30       0.00000000
  40 10 30       0.00000000
  40 11 30       0.00000000
  40 12 30       0.00000000
END period  1

