# File generated by Flopy version 3.3.5 on 03/04/2022 at 11:18:13.
BEGIN options
END options

BEGIN dimensions
  MAXBOUND  480
END dimensions

BEGIN period  1
  1 1 1  6.25000000E-04
  1 2 1  6.25000000E-04
  1 3 1  6.25000000E-04
  1 4 1  6.25000000E-04
  1 5 1  6.25000000E-04
  1 6 1  6.25000000E-04
  1 7 1  6.25000000E-04
  1 8 1  6.25000000E-04
  1 9 1  6.25000000E-04
  1 10 1  6.25000000E-04
  1 11 1  6.25000000E-04
  1 12 1  6.25000000E-04
  2 1 1  6.25000000E-04
  2 2 1  6.25000000E-04
  2 3 1  6.25000000E-04
  2 4 1  6.25000000E-04
  2 5 1  6.25000000E-04
  2 6 1  6.25000000E-04
  2 7 1  6.25000000E-04
  2 8 1  6.25000000E-04
  2 9 1  6.25000000E-04
  2 10 1  6.25000000E-04
  2 11 1  6.25000000E-04
  2 12 1  6.25000000E-04
  3 1 1  6.25000000E-04
  3 2 1  6.25000000E-04
  3 3 1  6.25000000E-04
  3 4 1  6.25000000E-04
  3 5 1  6.25000000E-04
  3 6 1  6.25000000E-04
  3 7 1  6.25000000E-04
  3 8 1  6.25000000E-04
  3 9 1  6.25000000E-04
  3 10 1  6.25000000E-04
  3 11 1  6.25000000E-04
  3 12 1  6.25000000E-04
  4 1 1  6.25000000E-04
  4 2 1  6.25000000E-04
  4 3 1  6.25000000E-04
  4 4 1  6.25000000E-04
  4 5 1  6.25000000E-04
  4 6 1  6.25000000E-04
  4 7 1  6.25000000E-04
  4 8 1  6.25000000E-04
  4 9 1  6.25000000E-04
  4 10 1  6.25000000E-04
  4 11 1  6.25000000E-04
  4 12 1  6.25000000E-04
  5 1 1  6.25000000E-04
  5 2 1  6.25000000E-04
  5 3 1  6.25000000E-04
  5 4 1  6.25000000E-04
  5 5 1  6.25000000E-04
  5 6 1  6.25000000E-04
  5 7 1  6.25000000E-04
  5 8 1  6.25000000E-04
  5 9 1  6.25000000E-04
  5 10 1  6.25000000E-04
  5 11 1  6.25000000E-04
  5 12 1  6.25000000E-04
  6 1 1  6.25000000E-04
  6 2 1  6.25000000E-04
  6 3 1  6.25000000E-04
  6 4 1  6.25000000E-04
  6 5 1  6.25000000E-04
  6 6 1  6.25000000E-04
  6 7 1  6.25000000E-04
  6 8 1  6.25000000E-04
  6 9 1  6.25000000E-04
  6 10 1  6.25000000E-04
  6 11 1  6.25000000E-04
  6 12 1  6.25000000E-04
  7 1 1  6.25000000E-04
  7 2 1  6.25000000E-04
  7 3 1  6.25000000E-04
  7 4 1  6.25000000E-04
  7 5 1  6.25000000E-04
  7 6 1  6.25000000E-04
  7 7 1  6.25000000E-04
  7 8 1  6.25000000E-04
  7 9 1  6.25000000E-04
  7 10 1  6.25000000E-04
  7 11 1  6.25000000E-04
  7 12 1  6.25000000E-04
  8 1 1  6.25000000E-04
  8 2 1  6.25000000E-04
  8 3 1  6.25000000E-04
  8 4 1  6.25000000E-04
  8 5 1  6.25000000E-04
  8 6 1  6.25000000E-04
  8 7 1  6.25000000E-04
  8 8 1  6.25000000E-04
  8 9 1  6.25000000E-04
  8 10 1  6.25000000E-04
  8 11 1  6.25000000E-04
  8 12 1  6.25000000E-04
  9 1 1  6.25000000E-04
  9 2 1  6.25000000E-04
  9 3 1  6.25000000E-04
  9 4 1  6.25000000E-04
  9 5 1  6.25000000E-04
  9 6 1  6.25000000E-04
  9 7 1  6.25000000E-04
  9 8 1  6.25000000E-04
  9 9 1  6.25000000E-04
  9 10 1  6.25000000E-04
  9 11 1  6.25000000E-04
  9 12 1  6.25000000E-04
  10 1 1  6.25000000E-04
  10 2 1  6.25000000E-04
  10 3 1  6.25000000E-04
  10 4 1  6.25000000E-04
  10 5 1  6.25000000E-04
  10 6 1  6.25000000E-04
  10 7 1  6.25000000E-04
  10 8 1  6.25000000E-04
  10 9 1  6.25000000E-04
  10 10 1  6.25000000E-04
  10 11 1  6.25000000E-04
  10 12 1  6.25000000E-04
  11 1 1  6.25000000E-04
  11 2 1  6.25000000E-04
  11 3 1  6.25000000E-04
  11 4 1  6.25000000E-04
  11 5 1  6.25000000E-04
  11 6 1  6.25000000E-04
  11 7 1  6.25000000E-04
  11 8 1  6.25000000E-04
  11 9 1  6.25000000E-04
  11 10 1  6.25000000E-04
  11 11 1  6.25000000E-04
  11 12 1  6.25000000E-04
  12 1 1  6.25000000E-04
  12 2 1  6.25000000E-04
  12 3 1  6.25000000E-04
  12 4 1  6.25000000E-04
  12 5 1  6.25000000E-04
  12 6 1  6.25000000E-04
  12 7 1  6.25000000E-04
  12 8 1  6.25000000E-04
  12 9 1  6.25000000E-04
  12 10 1  6.25000000E-04
  12 11 1  6.25000000E-04
  12 12 1  6.25000000E-04
  13 1 1  6.25000000E-04
  13 2 1  6.25000000E-04
  13 3 1  6.25000000E-04
  13 4 1  6.25000000E-04
  13 5 1  6.25000000E-04
  13 6 1  6.25000000E-04
  13 7 1  6.25000000E-04
  13 8 1  6.25000000E-04
  13 9 1  6.25000000E-04
  13 10 1  6.25000000E-04
  13 11 1  6.25000000E-04
  13 12 1  6.25000000E-04
  14 1 1  6.25000000E-04
  14 2 1  6.25000000E-04
  14 3 1  6.25000000E-04
  14 4 1  6.25000000E-04
  14 5 1  6.25000000E-04
  14 6 1  6.25000000E-04
  14 7 1  6.25000000E-04
  14 8 1  6.25000000E-04
  14 9 1  6.25000000E-04
  14 10 1  6.25000000E-04
  14 11 1  6.25000000E-04
  14 12 1  6.25000000E-04
  15 1 1  6.25000000E-04
  15 2 1  6.25000000E-04
  15 3 1  6.25000000E-04
  15 4 1  6.25000000E-04
  15 5 1  6.25000000E-04
  15 6 1  6.25000000E-04
  15 7 1  6.25000000E-04
  15 8 1  6.25000000E-04
  15 9 1  6.25000000E-04
  15 10 1  6.25000000E-04
  15 11 1  6.25000000E-04
  15 12 1  6.25000000E-04
  16 1 1  6.25000000E-04
  16 2 1  6.25000000E-04
  16 3 1  6.25000000E-04
  16 4 1  6.25000000E-04
  16 5 1  6.25000000E-04
  16 6 1  6.25000000E-04
  16 7 1  6.25000000E-04
  16 8 1  6.25000000E-04
  16 9 1  6.25000000E-04
  16 10 1  6.25000000E-04
  16 11 1  6.25000000E-04
  16 12 1  6.25000000E-04
  17 1 1  6.25000000E-04
  17 2 1  6.25000000E-04
  17 3 1  6.25000000E-04
  17 4 1  6.25000000E-04
  17 5 1  6.25000000E-04
  17 6 1  6.25000000E-04
  17 7 1  6.25000000E-04
  17 8 1  6.25000000E-04
  17 9 1  6.25000000E-04
  17 10 1  6.25000000E-04
  17 11 1  6.25000000E-04
  17 12 1  6.25000000E-04
  18 1 1  6.25000000E-04
  18 2 1  6.25000000E-04
  18 3 1  6.25000000E-04
  18 4 1  6.25000000E-04
  18 5 1  6.25000000E-04
  18 6 1  6.25000000E-04
  18 7 1  6.25000000E-04
  18 8 1  6.25000000E-04
  18 9 1  6.25000000E-04
  18 10 1  6.25000000E-04
  18 11 1  6.25000000E-04
  18 12 1  6.25000000E-04
  19 1 1  6.25000000E-04
  19 2 1  6.25000000E-04
  19 3 1  6.25000000E-04
  19 4 1  6.25000000E-04
  19 5 1  6.25000000E-04
  19 6 1  6.25000000E-04
  19 7 1  6.25000000E-04
  19 8 1  6.25000000E-04
  19 9 1  6.25000000E-04
  19 10 1  6.25000000E-04
  19 11 1  6.25000000E-04
  19 12 1  6.25000000E-04
  20 1 1  6.25000000E-04
  20 2 1  6.25000000E-04
  20 3 1  6.25000000E-04
  20 4 1  6.25000000E-04
  20 5 1  6.25000000E-04
  20 6 1  6.25000000E-04
  20 7 1  6.25000000E-04
  20 8 1  6.25000000E-04
  20 9 1  6.25000000E-04
  20 10 1  6.25000000E-04
  20 11 1  6.25000000E-04
  20 12 1  6.25000000E-04
  21 1 1  6.25000000E-04
  21 2 1  6.25000000E-04
  21 3 1  6.25000000E-04
  21 4 1  6.25000000E-04
  21 5 1  6.25000000E-04
  21 6 1  6.25000000E-04
  21 7 1  6.25000000E-04
  21 8 1  6.25000000E-04
  21 9 1  6.25000000E-04
  21 10 1  6.25000000E-04
  21 11 1  6.25000000E-04
  21 12 1  6.25000000E-04
  22 1 1  6.25000000E-04
  22 2 1  6.25000000E-04
  22 3 1  6.25000000E-04
  22 4 1  6.25000000E-04
  22 5 1  6.25000000E-04
  22 6 1  6.25000000E-04
  22 7 1  6.25000000E-04
  22 8 1  6.25000000E-04
  22 9 1  6.25000000E-04
  22 10 1  6.25000000E-04
  22 11 1  6.25000000E-04
  22 12 1  6.25000000E-04
  23 1 1  6.25000000E-04
  23 2 1  6.25000000E-04
  23 3 1  6.25000000E-04
  23 4 1  6.25000000E-04
  23 5 1  6.25000000E-04
  23 6 1  6.25000000E-04
  23 7 1  6.25000000E-04
  23 8 1  6.25000000E-04
  23 9 1  6.25000000E-04
  23 10 1  6.25000000E-04
  23 11 1  6.25000000E-04
  23 12 1  6.25000000E-04
  24 1 1  6.25000000E-04
  24 2 1  6.25000000E-04
  24 3 1  6.25000000E-04
  24 4 1  6.25000000E-04
  24 5 1  6.25000000E-04
  24 6 1  6.25000000E-04
  24 7 1  6.25000000E-04
  24 8 1  6.25000000E-04
  24 9 1  6.25000000E-04
  24 10 1  6.25000000E-04
  24 11 1  6.25000000E-04
  24 12 1  6.25000000E-04
  25 1 1  6.25000000E-04
  25 2 1  6.25000000E-04
  25 3 1  6.25000000E-04
  25 4 1  6.25000000E-04
  25 5 1  6.25000000E-04
  25 6 1  6.25000000E-04
  25 7 1  6.25000000E-04
  25 8 1  6.25000000E-04
  25 9 1  6.25000000E-04
  25 10 1  6.25000000E-04
  25 11 1  6.25000000E-04
  25 12 1  6.25000000E-04
  26 1 1  6.25000000E-04
  26 2 1  6.25000000E-04
  26 3 1  6.25000000E-04
  26 4 1  6.25000000E-04
  26 5 1  6.25000000E-04
  26 6 1  6.25000000E-04
  26 7 1  6.25000000E-04
  26 8 1  6.25000000E-04
  26 9 1  6.25000000E-04
  26 10 1  6.25000000E-04
  26 11 1  6.25000000E-04
  26 12 1  6.25000000E-04
  27 1 1  6.25000000E-04
  27 2 1  6.25000000E-04
  27 3 1  6.25000000E-04
  27 4 1  6.25000000E-04
  27 5 1  6.25000000E-04
  27 6 1  6.25000000E-04
  27 7 1  6.25000000E-04
  27 8 1  6.25000000E-04
  27 9 1  6.25000000E-04
  27 10 1  6.25000000E-04
  27 11 1  6.25000000E-04
  27 12 1  6.25000000E-04
  28 1 1  6.25000000E-04
  28 2 1  6.25000000E-04
  28 3 1  6.25000000E-04
  28 4 1  6.25000000E-04
  28 5 1  6.25000000E-04
  28 6 1  6.25000000E-04
  28 7 1  6.25000000E-04
  28 8 1  6.25000000E-04
  28 9 1  6.25000000E-04
  28 10 1  6.25000000E-04
  28 11 1  6.25000000E-04
  28 12 1  6.25000000E-04
  29 1 1  6.25000000E-04
  29 2 1  6.25000000E-04
  29 3 1  6.25000000E-04
  29 4 1  6.25000000E-04
  29 5 1  6.25000000E-04
  29 6 1  6.25000000E-04
  29 7 1  6.25000000E-04
  29 8 1  6.25000000E-04
  29 9 1  6.25000000E-04
  29 10 1  6.25000000E-04
  29 11 1  6.25000000E-04
  29 12 1  6.25000000E-04
  30 1 1  6.25000000E-04
  30 2 1  6.25000000E-04
  30 3 1  6.25000000E-04
  30 4 1  6.25000000E-04
  30 5 1  6.25000000E-04
  30 6 1  6.25000000E-04
  30 7 1  6.25000000E-04
  30 8 1  6.25000000E-04
  30 9 1  6.25000000E-04
  30 10 1  6.25000000E-04
  30 11 1  6.25000000E-04
  30 12 1  6.25000000E-04
  31 1 1  6.25000000E-04
  31 2 1  6.25000000E-04
  31 3 1  6.25000000E-04
  31 4 1  6.25000000E-04
  31 5 1  6.25000000E-04
  31 6 1  6.25000000E-04
  31 7 1  6.25000000E-04
  31 8 1  6.25000000E-04
  31 9 1  6.25000000E-04
  31 10 1  6.25000000E-04
  31 11 1  6.25000000E-04
  31 12 1  6.25000000E-04
  32 1 1  6.25000000E-04
  32 2 1  6.25000000E-04
  32 3 1  6.25000000E-04
  32 4 1  6.25000000E-04
  32 5 1  6.25000000E-04
  32 6 1  6.25000000E-04
  32 7 1  6.25000000E-04
  32 8 1  6.25000000E-04
  32 9 1  6.25000000E-04
  32 10 1  6.25000000E-04
  32 11 1  6.25000000E-04
  32 12 1  6.25000000E-04
  33 1 1  6.25000000E-04
  33 2 1  6.25000000E-04
  33 3 1  6.25000000E-04
  33 4 1  6.25000000E-04
  33 5 1  6.25000000E-04
  33 6 1  6.25000000E-04
  33 7 1  6.25000000E-04
  33 8 1  6.25000000E-04
  33 9 1  6.25000000E-04
  33 10 1  6.25000000E-04
  33 11 1  6.25000000E-04
  33 12 1  6.25000000E-04
  34 1 1  6.25000000E-04
  34 2 1  6.25000000E-04
  34 3 1  6.25000000E-04
  34 4 1  6.25000000E-04
  34 5 1  6.25000000E-04
  34 6 1  6.25000000E-04
  34 7 1  6.25000000E-04
  34 8 1  6.25000000E-04
  34 9 1  6.25000000E-04
  34 10 1  6.25000000E-04
  34 11 1  6.25000000E-04
  34 12 1  6.25000000E-04
  35 1 1  6.25000000E-04
  35 2 1  6.25000000E-04
  35 3 1  6.25000000E-04
  35 4 1  6.25000000E-04
  35 5 1  6.25000000E-04
  35 6 1  6.25000000E-04
  35 7 1  6.25000000E-04
  35 8 1  6.25000000E-04
  35 9 1  6.25000000E-04
  35 10 1  6.25000000E-04
  35 11 1  6.25000000E-04
  35 12 1  6.25000000E-04
  36 1 1  6.25000000E-04
  36 2 1  6.25000000E-04
  36 3 1  6.25000000E-04
  36 4 1  6.25000000E-04
  36 5 1  6.25000000E-04
  36 6 1  6.25000000E-04
  36 7 1  6.25000000E-04
  36 8 1  6.25000000E-04
  36 9 1  6.25000000E-04
  36 10 1  6.25000000E-04
  36 11 1  6.25000000E-04
  36 12 1  6.25000000E-04
  37 1 1  6.25000000E-04
  37 2 1  6.25000000E-04
  37 3 1  6.25000000E-04
  37 4 1  6.25000000E-04
  37 5 1  6.25000000E-04
  37 6 1  6.25000000E-04
  37 7 1  6.25000000E-04
  37 8 1  6.25000000E-04
  37 9 1  6.25000000E-04
  37 10 1  6.25000000E-04
  37 11 1  6.25000000E-04
  37 12 1  6.25000000E-04
  38 1 1  6.25000000E-04
  38 2 1  6.25000000E-04
  38 3 1  6.25000000E-04
  38 4 1  6.25000000E-04
  38 5 1  6.25000000E-04
  38 6 1  6.25000000E-04
  38 7 1  6.25000000E-04
  38 8 1  6.25000000E-04
  38 9 1  6.25000000E-04
  38 10 1  6.25000000E-04
  38 11 1  6.25000000E-04
  38 12 1  6.25000000E-04
  39 1 1  6.25000000E-04
  39 2 1  6.25000000E-04
  39 3 1  6.25000000E-04
  39 4 1  6.25000000E-04
  39 5 1  6.25000000E-04
  39 6 1  6.25000000E-04
  39 7 1  6.25000000E-04
  39 8 1  6.25000000E-04
  39 9 1  6.25000000E-04
  39 10 1  6.25000000E-04
  39 11 1  6.25000000E-04
  39 12 1  6.25000000E-04
  40 1 1  6.25000000E-04
  40 2 1  6.25000000E-04
  40 3 1  6.25000000E-04
  40 4 1  6.25000000E-04
  40 5 1  6.25000000E-04
  40 6 1  6.25000000E-04
  40 7 1  6.25000000E-04
  40 8 1  6.25000000E-04
  40 9 1  6.25000000E-04
  40 10 1  6.25000000E-04
  40 11 1  6.25000000E-04
  40 12 1  6.25000000E-04
END period  1

