# File generated by Flopy version 3.3.5 on 03/04/2022 at 11:18:13.
BEGIN options
  LENGTH_UNITS  m
END options

BEGIN dimensions
  NLAY  40
  NROW  12
  NCOL  30
END dimensions

BEGIN griddata
  delr
    CONSTANT       3.00000000
  delc
    CONSTANT       0.50000000
  top
    CONSTANT       0.00000000
  botm  LAYERED
    CONSTANT      -0.05000000
    CONSTANT      -0.10000000
    CONSTANT      -0.15000000
    CONSTANT      -0.20000000
    CONSTANT      -0.25000000
    CONSTANT      -0.30000000
    CONSTANT      -0.35000000
    CONSTANT      -0.40000000
    CONSTANT      -0.45000000
    CONSTANT      -0.50000000
    CONSTANT      -0.55000000
    CONSTANT      -0.60000000
    CONSTANT      -0.65000000
    CONSTANT      -0.70000000
    CONSTANT      -0.75000000
    CONSTANT      -0.80000000
    CONSTANT      -0.85000000
    CONSTANT      -0.90000000
    CONSTANT      -0.95000000
    CONSTANT      -1.00000000
    CONSTANT      -1.05000000
    CONSTANT      -1.10000000
    CONSTANT      -1.15000000
    CONSTANT      -1.20000000
    CONSTANT      -1.25000000
    CONSTANT      -1.30000000
    CONSTANT      -1.35000000
    CONSTANT      -1.40000000
    CONSTANT      -1.45000000
    CONSTANT      -1.50000000
    CONSTANT      -1.55000000
    CONSTANT      -1.60000000
    CONSTANT      -1.65000000
    CONSTANT      -1.70000000
    CONSTANT      -1.75000000
    CONSTANT      -1.80000000
    CONSTANT      -1.85000000
    CONSTANT      -1.90000000
    CONSTANT      -1.95000000
    CONSTANT      -2.00000000
END griddata

