# File generated by Flopy version 3.3.5 on 03/04/2022 at 11:18:19.
BEGIN options
  SAVE_FLOWS
END options

BEGIN packages
  DIS6  .\gwt-p01-mf6.dis  dis
  IC6  .\gwt-p01-mf6.ic  ic
  ADV6  .\gwt-p01-mf6.adv  adv
  MST6  .\gwt-p01-mf6.mst  mst
  CNC6  .\gwt-p01-mf6.cnc  cnc-1
  SSM6  .\gwt-p01-mf6.ssm  ssm
  OC6  .\gwt-p01-mf6.oc  oc
END packages

