# File generated by Flopy version 3.3.5 on 03/04/2022 at 11:18:48.
BEGIN options
  SORPTION
  ZERO_ORDER_DECAY
END options

BEGIN griddata
  thetaim
    CONSTANT       0.05000000
  zetaim
    CONSTANT       0.00100000
  decay
    CONSTANT       0.00000000
  decay_sorbed
    CONSTANT      -0.00100000
  bulk_density
    CONSTANT       4.00000000
  distcoef
    CONSTANT       0.25000000
END griddata

