# File generated by Flopy version 3.3.5 on 03/04/2022 at 11:13:39.
BEGIN options
  READASARRAYS
END options

BEGIN period  1
  recharge
    CONSTANT       0.00400000
END period  1

