# File generated by Flopy version 3.3.5 on 03/04/2022 at 11:14:23.
BEGIN options
END options

BEGIN timing
  TDIS6  ex-gwf-lgrv-gc.tdis
END timing

BEGIN models
  gwf6  parent.nam  parent
END models

BEGIN exchanges
END exchanges

BEGIN solutiongroup  1
  ims6  ex-gwf-lgrv-gc.ims  parent
END solutiongroup  1

