# File generated by Flopy version 3.3.5 on 03/04/2022 at 11:14:23.
BEGIN options
END options

BEGIN dimensions
  MAXBOUND  73
END dimensions

BEGIN period  1
  1 29 47      38.16650000       0.03674000      37.66650000
  1 29 48      37.94240000       0.09185000      37.44240000
  1 29 49      37.66533333       0.05511000      37.16533333
  1 30 43      39.39433333       0.05511000      38.89433333
  1 30 44      39.11200000       0.05511000      38.61200000
  1 30 45      38.82640000       0.09185000      38.32640000
  1 30 46      38.51600000       0.05511000      38.01600000
  1 30 47      38.28850000       0.03674000      37.78850000
  1 30 49      37.55200000       0.01837000      37.05200000
  1 31 41      39.97200000       0.07348000      39.47200000
  1 31 42      39.70575000       0.07348000      39.20575000
  1 31 43      39.52700000       0.01837000      39.02700000
  1 32 38      40.76400000       0.01837000      40.26400000
  1 32 39      40.58400000       0.07348000      40.08400000
  1 32 40      40.30175000       0.07348000      39.80175000
  1 32 41      40.10800000       0.01837000      39.60800000
  1 33 36      41.38500000       0.01837000      40.88500000
  1 33 37      41.19525000       0.07348000      40.69525000
  1 33 38      40.92575000       0.07348000      40.42575000
  1 34 33      42.24300000       0.01837000      41.74300000
  1 34 34      42.07333333       0.05511000      41.57333333
  1 34 35      41.77575000       0.07348000      41.27575000
  1 34 36      41.52250000       0.07348000      41.02250000
  1 35 23      45.27100000       0.01837000      44.77100000
  1 35 24      45.10220000       0.09185000      44.60220000
  1 35 25      44.74500000       0.09185000      44.24500000
  1 35 26      44.41800000       0.07348000      43.91800000
  1 35 27      44.15700000       0.07348000      43.65700000
  1 35 30      43.12600000       0.01837000      42.62600000
  1 35 31      42.95520000       0.09185000      42.45520000
  1 35 32      42.63366667       0.05511000      42.13366667
  1 35 33      42.36333333       0.05511000      41.86333333
  1 36 22      45.61000000       0.01837000      45.11000000
  1 36 23      45.44280000       0.09185000      44.94280000
  1 36 27      44.00300000       0.01837000      43.50300000
  1 36 28      43.84033333       0.05511000      43.34033333
  1 36 29      43.55300000       0.05511000      43.05300000
  1 36 30      43.26933333       0.05511000      42.76933333
  1 37 22      45.77560000       0.09185000      45.27560000
  1 38 21      46.11880000       0.09185000      45.61880000
  1 38 22      45.94600000       0.01837000      45.44600000
  1 39 20      46.46380000       0.09185000      45.96380000
  1 39 21      46.29100000       0.01837000      45.79100000
  1 40 19      46.80860000       0.09185000      46.30860000
  1 40 20      46.63600000       0.01837000      46.13600000
  1 41 18      47.15340000       0.09185000      46.65340000
  1 41 19      46.98000000       0.01837000      46.48000000
  1 42 16      47.67900000       0.01837000      47.17900000
  1 42 17      47.50100000       0.09185000      47.00100000
  1 42 18      47.32500000       0.01837000      46.82500000
  1 43 15      48.07200000       0.03674000      47.57200000
  1 43 16      47.85760000       0.09185000      47.35760000
  1 44 14      48.43275000       0.07348000      47.93275000
  1 44 15      48.21666667       0.05511000      47.71666667
  1 45 2      51.97700000       0.01837000      51.47700000
  1 45 3      51.97000000       0.01837000      51.47000000
  1 45 12      48.95800000       0.01837000      48.45800000
  1 45 13      48.76180000       0.09185000      48.26180000
  1 45 14      48.57400000       0.01837000      48.07400000
  1 46 3      51.79820000       0.09185000      51.29820000
  1 46 4      51.62600000       0.01837000      51.12600000
  1 46 10      49.55000000       0.01837000      49.05000000
  1 46 11      49.38725000       0.07348000      48.88725000
  1 46 12      49.11700000       0.07348000      48.61700000
  1 47 4      51.45420000       0.09185000      50.95420000
  1 47 5      51.28200000       0.01837000      50.78200000
  1 47 9      49.95425000       0.07348000      49.45425000
  1 47 10      49.70050000       0.07348000      49.20050000
  1 48 5      51.13900000       0.07348000      50.63900000
  1 48 6      50.87975000       0.07348000      50.37975000
  1 48 7      50.56900000       0.05511000      50.06900000
  1 48 8      50.28766667       0.05511000      49.78766667
  1 48 9      50.09700000       0.01837000      49.59700000
END period  1

