# File generated by Flopy version 3.3.5 on 03/04/2022 at 11:14:23.
BEGIN options
  SAVE_FLOWS
END options

BEGIN packages
  DIS6  .\parent.dis  dis
  NPF6  .\parent.npf  npf
  IC6  .\parent.ic  ic
  RIV6  .\parent.riv  riv
  RCH6  .\parent.rcha  rch
  OC6  .\parent.oc  oc
END packages

