# File generated by Flopy version 3.3.5 on 03/04/2022 at 11:18:45.
BEGIN options
  auxiliary  CONCENTRATION
END options

BEGIN dimensions
  MAXBOUND  1
END dimensions

BEGIN period  1
  1 1 1       0.10000000       1.00000000
END period  1

BEGIN period  2
  1 1 1       0.10000000       0.00000000
END period  2

