# File generated by Flopy version 3.3.5 on 03/04/2022 at 11:14:40.
BEGIN options
  HEAD  FILEOUT  ex-gwf-nwt-p02.hds
END options

BEGIN period  1
  SAVE  HEAD  LAST
END period  1

