# File generated by Flopy version 3.3.5 on 03/04/2022 at 11:14:40.
BEGIN options
END options

BEGIN dimensions
  MAXBOUND  4
END dimensions

BEGIN period  1
  1 1 1       0.05000000
  1 1 2       0.05000000
  1 2 1       0.05000000
  1 2 2       0.05000000
END period  1

