# File generated by Flopy version 3.3.5 on 03/04/2022 at 11:14:30.
BEGIN options
END options

BEGIN dimensions
  MAXBOUND  123
END dimensions

BEGIN period  1
  1 35 77      39.95200000       0.01837000      39.45200000
  1 35 78      39.86600000       0.01837000      39.36600000
  1 36 76      40.06000000       0.01837000      39.56000000
  1 36 77      40.01000000       0.01837000      39.51000000
  1 37 74      40.26700000       0.01837000      39.76700000
  1 37 75      40.21600000       0.01837000      39.71600000
  1 37 76      40.10800000       0.01837000      39.60800000
  1 38 72      40.49400000       0.01837000      39.99400000
  1 38 73      40.40900000       0.01837000      39.90900000
  1 38 74      40.31500000       0.01837000      39.81500000
  1 39 69      40.76400000       0.01837000      40.26400000
  1 39 70      40.69800000       0.01837000      40.19800000
  1 39 71      40.60200000       0.01837000      40.10200000
  1 39 72      40.54200000       0.01837000      40.04200000
  1 40 67      40.97300000       0.01837000      40.47300000
  1 40 68      40.89300000       0.01837000      40.39300000
  1 40 69      40.81500000       0.01837000      40.31500000
  1 41 65      41.18000000       0.01837000      40.68000000
  1 41 66      41.08800000       0.01837000      40.58800000
  1 41 67      41.02200000       0.01837000      40.52200000
  1 42 63      41.38500000       0.01837000      40.88500000
  1 42 64      41.28400000       0.01837000      40.78400000
  1 42 65      41.22900000       0.01837000      40.72900000
  1 43 61      41.56300000       0.01837000      41.06300000
  1 43 62      41.48300000       0.01837000      40.98300000
  1 43 63      41.43000000       0.01837000      40.93000000
  1 44 59      41.74700000       0.01837000      41.24700000
  1 44 60      41.68700000       0.01837000      41.18700000
  1 44 61      41.61400000       0.01837000      41.11400000
  1 45 54      42.24300000       0.01837000      41.74300000
  1 45 55      42.16700000       0.01837000      41.66700000
  1 45 56      42.07300000       0.01837000      41.57300000
  1 45 57      41.98000000       0.01837000      41.48000000
  1 45 58      41.87100000       0.01837000      41.37100000
  1 45 59      41.79800000       0.01837000      41.29800000
  1 46 26      45.04400000       0.01837000      44.54400000
  1 46 27      44.98000000       0.01837000      44.48000000
  1 46 28      44.87700000       0.01837000      44.37700000
  1 46 29      44.79300000       0.01837000      44.29300000
  1 46 47      42.90500000       0.01837000      42.40500000
  1 46 48      42.82000000       0.01837000      42.32000000
  1 46 49      42.72700000       0.01837000      42.22700000
  1 46 50      42.63400000       0.01837000      42.13400000
  1 46 51      42.54000000       0.01837000      42.04000000
  1 46 52      42.44700000       0.01837000      41.94700000
  1 46 53      42.35300000       0.01837000      41.85300000
  1 46 54      42.29000000       0.01837000      41.79000000
  1 47 25      45.15800000       0.01837000      44.65800000
  1 47 26      45.11300000       0.01837000      44.61300000
  1 47 29      44.73900000       0.01837000      44.23900000
  1 47 30      44.69000000       0.01837000      44.19000000
  1 47 32      44.38200000       0.01837000      43.88200000
  1 47 33      44.32700000       0.01837000      43.82700000
  1 47 34      44.24800000       0.01837000      43.74800000
  1 47 46      43.01200000       0.01837000      42.51200000
  1 47 47      42.97000000       0.01837000      42.47000000
  1 48 24      45.27100000       0.01837000      44.77100000
  1 48 25      45.21600000       0.01837000      44.71600000
  1 48 30      44.62600000       0.01837000      44.12600000
  1 48 31      44.52600000       0.01837000      44.02600000
  1 48 32      44.43700000       0.01837000      43.93700000
  1 48 34      44.20000000       0.01837000      43.70000000
  1 48 35      44.12500000       0.01837000      43.62500000
  1 48 36      44.05500000       0.01837000      43.55500000
  1 48 45      43.12600000       0.01837000      42.62600000
  1 48 46      43.06900000       0.01837000      42.56900000
  1 49 23      45.38500000       0.01837000      44.88500000
  1 49 24      45.32900000       0.01837000      44.82900000
  1 49 36      44.00300000       0.01837000      43.50300000
  1 49 37      43.94000000       0.01837000      43.44000000
  1 49 38      43.83300000       0.01837000      43.33300000
  1 49 39      43.74800000       0.01837000      43.24800000
  1 49 40      43.64600000       0.01837000      43.14600000
  1 49 41      43.55300000       0.01837000      43.05300000
  1 49 42      43.46000000       0.01837000      42.96000000
  1 49 43      43.36600000       0.01837000      42.86600000
  1 49 44      43.25900000       0.01837000      42.75900000
  1 49 45      43.18300000       0.01837000      42.68300000
  1 50 22      45.49800000       0.01837000      44.99800000
  1 50 23      45.43400000       0.01837000      44.93400000
  1 51 21      45.61000000       0.01837000      45.11000000
  1 51 22      45.56800000       0.01837000      45.06800000
  1 52 21      45.65900000       0.01837000      45.15900000
  1 53 20      45.77400000       0.01837000      45.27400000
  1 53 21      45.72500000       0.01837000      45.22500000
  1 54 19      45.88900000       0.01837000      45.38900000
  1 54 20      45.83100000       0.01837000      45.33100000
  1 55 18      46.00400000       0.01837000      45.50400000
  1 55 19      45.94600000       0.01837000      45.44600000
  1 56 17      46.11900000       0.01837000      45.61900000
  1 56 18      46.06100000       0.01837000      45.56100000
  1 57 16      46.23400000       0.01837000      45.73400000
  1 57 17      46.17600000       0.01837000      45.67600000
  1 58 15      46.34900000       0.01837000      45.84900000
  1 58 16      46.29100000       0.01837000      45.79100000
  1 59 14      46.46400000       0.01837000      45.96400000
  1 59 15      46.40600000       0.01837000      45.90600000
  1 60 13      46.57900000       0.01837000      46.07900000
  1 60 14      46.52100000       0.01837000      46.02100000
  1 61 12      46.69400000       0.01837000      46.19400000
  1 61 13      46.63600000       0.01837000      46.13600000
  1 62 11      46.80900000       0.01837000      46.30900000
  1 62 12      46.75100000       0.01837000      46.25100000
  1 63 10      46.92400000       0.01837000      46.42400000
  1 63 11      46.86500000       0.01837000      46.36500000
  1 64 9      47.03900000       0.01837000      46.53900000
  1 64 10      46.98000000       0.01837000      46.48000000
  1 65 8      47.15400000       0.01837000      46.65400000
  1 65 9      47.09500000       0.01837000      46.59500000
  1 66 7      47.26900000       0.01837000      46.76900000
  1 66 8      47.21000000       0.01837000      46.71000000
  1 67 6      47.38400000       0.01837000      46.88400000
  1 67 7      47.32500000       0.01837000      46.82500000
  1 68 5      47.50500000       0.01837000      47.00500000
  1 68 6      47.44000000       0.01837000      46.94000000
  1 69 3      47.67900000       0.01837000      47.17900000
  1 69 4      47.62000000       0.01837000      47.12000000
  1 69 5      47.55600000       0.01837000      47.05600000
  1 70 2      47.80100000       0.01837000      47.30100000
  1 70 3      47.73200000       0.01837000      47.23200000
  1 71 1      47.92400000       0.01837000      47.42400000
  1 71 2      47.85400000       0.01837000      47.35400000
  1 72 1      47.97700000       0.01837000      47.47700000
END period  1

