# File generated by Flopy version 3.3.5 on 03/04/2022 at 11:14:29.
BEGIN griddata
  strt  LAYERED
    INTERNAL  FACTOR  1.0
          80.66700000      80.46900000      80.27100000      80.16300000      80.14400000      80.12600000      80.13600000      80.17400000      80.21200000      80.37500000      80.66400000      80.95300000      81.06900000      81.01100000      80.95400000      80.95600000      81.01900000      81.08200000      80.97800000      80.70700000      80.43600000      80.30200000      80.30600000      80.31100000      80.56600000      81.07100000      81.57700000      81.99800000      82.33500000      82.67300000      82.35200000      81.37300000      80.39500000      80.58200000      81.93600000      83.29000000      84.17700000      84.59700000      85.01700000      84.97800000      84.48100000      83.98400000      83.32700000      82.51100000      81.69400000      80.61800000      79.28200000      77.94600000      76.75600000      75.71400000      74.67200000      73.67200000      72.71400000      71.75600000      71.64500000      72.38100000      73.11600000      73.70600000      74.15000000      74.59400000      74.84700000      74.90800000      74.96900000      74.03400000      72.10200000      70.17000000      68.53100000      67.18500000      65.83900000      64.72700000      63.84900000      62.97000000      62.20900000      61.56600000      60.92200000      60.50000000      60.30000000      60.10000000
          80.88600000      80.73800000      80.58900000      80.48800000      80.43300000      80.37800000      80.40800000      80.52200000      80.63600000      80.81400000      81.05700000      81.30000000      81.40900000      81.38400000      81.35800000      81.36600000      81.40800000      81.44900000      81.32600000      81.03800000      80.75000000      80.66200000      80.77300000      80.88400000      81.17400000      81.64400000      82.11400000      82.52100000      82.86400000      83.20700000      83.00700000      82.26400000      81.52000000      81.62000000      82.56400000      83.50800000      84.36700000      85.14200000      85.91700000      86.01500000      85.43600000      84.85600000      84.17900000      83.40200000      82.62600000      81.51800000      80.08000000      78.64200000      77.38900000      76.32200000      75.25600000      74.24500000      73.29000000      72.33500000      72.06300000      72.47400000      72.88500000      73.31700000      73.76900000      74.22200000      74.54000000      74.72400000      74.90800000      74.00200000      72.00700000      70.01100000      68.42800000      67.25600000      66.08500000      65.01500000      64.04600000      63.07800000      62.22200000      61.47700000      60.73200000      60.30000000      60.18000000      60.06000000
          81.10500000      81.00600000      80.90800000      80.81300000      80.72200000      80.63000000      80.68000000      80.87000000      81.06000000      81.25400000      81.45100000      81.64800000      81.74900000      81.75600000      81.76300000      81.77600000      81.79600000      81.81500000      81.67300000      81.36900000      81.06500000      81.02200000      81.23900000      81.45700000      81.78300000      82.21800000      82.65200000      83.04400000      83.39300000      83.74200000      83.66200000      83.15400000      82.64600000      82.65900000      83.19200000      83.72600000      84.55700000      85.68700000      86.81700000      87.05200000      86.39000000      85.72900000      85.03000000      84.29400000      83.55700000      82.41900000      80.87800000      79.33800000      78.02200000      76.93100000      75.84000000      74.81800000      73.86600000      72.91400000      72.48100000      72.56700000      72.65400000      72.92700000      73.38800000      73.84900000      74.23300000      74.54000000      74.84700000      73.97100000      71.91200000      69.85300000      68.32500000      67.32700000      66.33000000      65.30200000      64.24400000      63.18600000      62.23400000      61.38800000      60.54300000      60.10000000      60.06000000      60.02000000
          81.36800000      81.30900000      81.25000000      81.17500000      81.08200000      80.99000000      81.06100000      81.29500000      81.53000000      81.73100000      81.89700000      82.06400000      82.15000000      82.15700000      82.16400000      82.16500000      82.16100000      82.15700000      82.01100000      81.72300000      81.43500000      81.43200000      81.71200000      81.99200000      82.33400000      82.73500000      83.13700000      83.52200000      83.89000000      84.25800000      84.27000000      83.92800000      83.58500000      83.47200000      83.58900000      83.70600000      84.51300000      86.01200000      87.51100000      87.94300000      87.30900000      86.67500000      86.00900000      85.31000000      84.61100000      83.44900000      81.82400000      80.19800000      78.82800000      77.71200000      76.59700000      75.52900000      74.50800000      73.48800000      72.89800000      72.73900000      72.58000000      72.69400000      73.08100000      73.46900000      73.77800000      74.00800000      74.23800000      73.38600000      71.45100000      69.51600000      68.07200000      67.11800000      66.16500000      65.17200000      64.14100000      63.10900000      62.16100000      61.29600000      60.43200000      60.00000000      60.00000000      60.00000000
          81.67600000      81.64600000      81.61700000      81.57300000      81.51500000      81.45700000      81.55100000      81.79900000      82.04600000      82.24500000      82.39700000      82.54900000      82.61200000      82.58700000      82.56100000      82.53300000      82.50400000      82.47400000      82.34000000      82.10100000      81.86200000      81.89200000      82.19100000      82.49000000      82.82600000      83.19800000      83.57100000      83.95700000      84.35700000      84.75600000      84.83200000      84.58400000      84.33600000      84.05900000      83.75300000      83.44800000      84.23600000      86.11700000      87.99800000      88.69000000      88.19300000      87.69600000      87.11500000      86.45100000      85.78700000      84.60900000      82.91600000      81.22300000      79.80700000      78.66700000      77.52800000      76.37800000      75.21700000      74.05600000      73.31300000      72.98800000      72.66300000      72.61600000      72.84900000      73.08100000      73.17500000      73.12900000      73.08300000      72.24800000      70.62400000      69.00000000      67.66800000      66.62900000      65.58900000      64.62500000      63.73600000      62.84700000      62.00200000      61.20100000      60.40000000      60.00000000      60.00000000      60.00000000
          81.98400000      81.98400000      81.98300000      81.97100000      81.94700000      81.92300000      82.04200000      82.30200000      82.56200000      82.76000000      82.89700000      83.03400000      83.07400000      83.01600000      82.95800000      82.90200000      82.84700000      82.79200000      82.66900000      82.47800000      82.28800000      82.35200000      82.67000000      82.98800000      83.31800000      83.66100000      84.00400000      84.39100000      84.82300000      85.25500000      85.39400000      85.24000000      85.08700000      84.64600000      83.91800000      83.19000000      83.95800000      86.22200000      88.48600000      89.43700000      89.07700000      88.71700000      88.22200000      87.59300000      86.96400000      85.76900000      84.00800000      82.24800000      80.78600000      79.62200000      78.45900000      77.22600000      75.92500000      74.62400000      73.72800000      73.23700000      72.74600000      72.53900000      72.61600000      72.69400000      72.57200000      72.25000000      71.92800000      71.11000000      69.79700000      68.48400000      67.26500000      66.13900000      65.01400000      64.07800000      63.33200000      62.58600000      61.84400000      61.10600000      60.36900000      60.00000000      60.00000000      60.00000000
          82.38800000      82.43100000      82.47400000      82.47500000      82.43400000      82.39300000      82.51800000      82.80900000      83.10000000      83.29800000      83.40400000      83.50900000      83.51900000      83.43300000      83.34700000      83.26500000      83.18700000      83.10900000      83.00200000      82.86600000      82.73000000      82.82900000      83.16000000      83.49200000      83.82400000      84.15600000      84.48700000      84.88100000      85.33500000      85.78900000      85.91600000      85.71400000      85.51300000      84.96400000      84.06800000      83.17100000      83.97200000      86.47100000      88.97100000      90.11000000      89.89100000      89.67100000      89.26500000      88.67300000      88.08100000      86.89300000      85.10800000      83.32300000      81.80400000      80.55100000      79.29700000      77.97000000      76.57000000      75.17000000      74.14100000      73.48500000      72.82800000      72.50000000      72.50000000      72.50000000      72.20400000      71.61100000      71.01800000      70.12000000      68.91700000      67.71300000      66.61900000      65.63400000      64.65000000      63.82800000      63.16900000      62.51100000      61.83900000      61.15400000      60.46900000      60.12900000      60.13300000      60.13700000
          82.89000000      82.99000000      83.08900000      83.08500000      82.97500000      82.86600000      82.98200000      83.32100000      83.66100000      83.86000000      83.91700000      83.97400000      83.94800000      83.83800000      83.72700000      83.62300000      83.52400000      83.42500000      83.33800000      83.26400000      83.18900000      83.32200000      83.66200000      84.00200000      84.34200000      84.68200000      85.02100000      85.42500000      85.89200000      86.35900000      86.39700000      86.00600000      85.61400000      85.01300000      84.20300000      83.39200000      84.28000000      86.86600000      89.45300000      90.70900000      90.63400000      90.56000000      90.24600000      89.69300000      89.13900000      87.98000000      86.21500000      84.44900000      82.86200000      81.45200000      80.04200000      78.60900000      77.15100000      75.69400000      74.55400000      73.73300000      72.91100000      72.50000000      72.50000000      72.50000000      72.07100000      71.21300000      70.35500000      69.27800000      67.98300000      66.68700000      65.73100000      65.11400000      64.49800000      63.87600000      63.24900000      62.62200000      61.98800000      61.34500000      60.70200000      60.38700000      60.39900000      60.41100000
          83.39100000      83.54800000      83.70500000      83.69400000      83.51700000      83.33900000      83.44500000      83.83400000      84.22200000      84.42100000      84.43000000      84.43900000      84.37600000      84.24200000      84.10800000      83.98100000      83.86100000      83.74100000      83.67500000      83.66100000      83.64800000      83.81600000      84.16400000      84.51300000      84.86100000      85.20800000      85.55500000      85.96900000      86.44900000      86.92900000      86.87900000      86.29700000      85.71600000      85.06300000      84.33800000      83.61300000      84.58700000      87.26100000      89.93500000      91.30800000      91.37800000      91.44800000      91.22600000      90.71200000      90.19800000      89.06800000      87.32100000      85.57500000      83.91900000      82.35300000      80.78700000      79.24700000      77.73200000      76.21800000      74.96700000      73.98000000      72.99300000      72.50000000      72.50000000      72.50000000      71.93800000      70.81500000      69.69100000      68.43600000      67.04900000      65.66100000      64.84300000      64.59400000      64.34500000      63.92300000      63.32900000      62.73400000      62.13600000      61.53600000      60.93500000      60.64500000      60.66500000      60.68600000
          83.91500000      84.11800000      84.32100000      84.31400000      84.09700000      83.87900000      83.98300000      84.40700000      84.83100000      85.03100000      85.00600000      84.98200000      84.88300000      84.70900000      84.53600000      84.37700000      84.23200000      84.08800000      84.03500000      84.07200000      84.10900000      84.31200000      84.68100000      85.05000000      85.41100000      85.76500000      86.11900000      86.52500000      86.98300000      87.44200000      87.34100000      86.68100000      86.02100000      85.32200000      84.58600000      83.85000000      84.85100000      87.58900000      90.32700000      91.75600000      91.87500000      91.99400000      91.83300000      91.39300000      90.95200000      89.81900000      87.99300000      86.16700000      84.42600000      82.77000000      81.11500000      79.44400000      77.75800000      76.07100000      74.77400000      73.86400000      72.95500000      72.47400000      72.42100000      72.36900000      71.74500000      70.54900000      69.35300000      68.06600000      66.68800000      65.31000000      64.58500000      64.51300000      64.44100000      64.14300000      63.61800000      63.09300000      62.70400000      62.44900000      62.19500000      61.98600000      61.82000000      61.65500000
          84.46200000      84.70000000      84.93800000      84.94300000      84.71500000      84.48600000      84.59500000      85.04100000      85.48700000      85.68900000      85.64600000      85.60200000      85.46700000      85.23900000      85.01100000      84.81000000      84.63800000      84.46600000      84.41900000      84.49600000      84.57300000      84.81200000      85.21300000      85.61400000      85.99400000      86.35200000      86.71100000      87.09200000      87.49500000      87.89800000      87.78500000      87.15700000      86.52900000      85.79200000      84.94800000      84.10300000      85.07000000      87.84900000      90.62800000      92.05400000      92.12500000      92.19600000      92.06600000      91.73500000      91.40300000      90.23500000      88.23000000      86.22500000      84.38300000      82.70300000      81.02400000      79.19900000      77.22700000      75.25500000      73.97400000      73.38400000      72.79500000      72.42100000      72.26400000      72.10700000      71.49100000      70.41500000      69.34000000      68.16900000      66.90200000      65.63500000      64.95800000      64.87100000      64.78500000      64.53400000      64.11700000      63.70100000      63.69100000      64.08700000      64.48300000      64.40900000      63.86500000      63.32100000
          85.00900000      85.28200000      85.55600000      85.57300000      85.33300000      85.09400000      85.20800000      85.67600000      86.14400000      86.34700000      86.28500000      86.22300000      86.05100000      85.76800000      85.48500000      85.24400000      85.04400000      84.84400000      84.80200000      84.92000000      85.03700000      85.31200000      85.74500000      86.17800000      86.57600000      86.94000000      87.30300000      87.65900000      88.00600000      88.35300000      88.22800000      87.63200000      87.03600000      86.26200000      85.30900000      84.35600000      85.29000000      88.11000000      90.92900000      92.35100000      92.37500000      92.39900000      92.29900000      92.07700000      91.85400000      90.65100000      88.46700000      86.28200000      84.33900000      82.63600000      80.93400000      78.95300000      76.69600000      74.43800000      73.17400000      72.90400000      72.63500000      72.36900000      72.10700000      71.84500000      71.23600000      70.28200000      69.32700000      68.27100000      67.11500000      65.95900000      65.33000000      65.23000000      65.12900000      64.92500000      64.61700000      64.30900000      64.67800000      65.72400000      66.77000000      66.83200000      65.90900000      64.98600000
          85.58400000      85.85700000      86.12900000      86.16300000      85.95700000      85.75200000      85.85500000      86.26600000      86.67700000      86.85600000      86.80200000      86.74900000      86.58300000      86.30500000      86.02800000      85.77100000      85.53600000      85.30100000      85.24100000      85.35600000      85.47000000      85.75500000      86.21100000      86.66600000      87.08400000      87.46300000      87.84300000      88.18900000      88.50000000      88.81100000      88.68600000      88.12300000      87.56000000      86.70400000      85.55500000      84.40600000      85.24500000      88.07200000      90.89800000      92.34300000      92.40600000      92.46900000      92.43000000      92.29000000      92.15000000      90.94800000      88.68400000      86.42000000      84.39600000      82.61100000      80.82600000      78.77900000      76.46900000      74.15900000      72.92000000      72.75200000      72.58400000      72.29300000      71.87900000      71.46500000      70.89200000      70.15900000      69.42700000      68.52900000      67.46600000      66.40300000      65.76100000      65.53900000      65.31800000      65.18000000      65.12600000      65.07300000      65.74600000      67.14800000      68.54900000      68.72700000      67.68100000      66.63600000
          86.18800000      86.42400000      86.65900000      86.71400000      86.58700000      86.46100000      86.53500000      86.81200000      87.08800000      87.21700000      87.19800000      87.18000000      87.06400000      86.85100000      86.63700000      86.39200000      86.11500000      85.83800000      85.73500000      85.80400000      85.87400000      86.14300000      86.61100000      87.07800000      87.51600000      87.92300000      88.33100000      88.68200000      88.97800000      89.27300000      89.15700000      88.62900000      88.10100000      87.12000000      85.68600000      84.25200000      84.93500000      87.73600000      90.53600000      92.03000000      92.21800000      92.40600000      92.45800000      92.37400000      92.29000000      91.12600000      88.88200000      86.63800000      84.55400000      82.62800000      80.70200000      78.67500000      76.54600000      74.41700000      73.21000000      72.92600000      72.64200000      72.19300000      71.58000000      70.96700000      70.45600000      70.04800000      69.64000000      68.94200000      67.95500000      66.96700000      66.24900000      65.80000000      65.35100000      65.30000000      65.64600000      65.99300000      66.89700000      68.35800000      69.81900000      70.09400000      69.18200000      68.27100000
          86.79200000      86.99100000      87.19000000      87.26500000      87.21800000      87.17000000      87.21600000      87.35700000      87.49800000      87.57700000      87.59400000      87.61200000      87.54600000      87.39600000      87.24700000      87.01300000      86.69400000      86.37500000      86.22800000      86.25300000      86.27700000      86.53000000      87.01000000      87.49100000      87.94800000      88.38300000      88.81800000      89.17500000      89.45500000      89.73500000      89.62800000      89.13500000      88.64100000      87.53500000      85.81700000      84.09900000      84.62600000      87.39900000      90.17300000      91.71600000      92.03000000      92.34300000      92.48600000      92.45800000      92.43000000      91.30400000      89.08000000      86.85700000      84.71200000      82.64500000      80.57800000      78.57100000      76.62300000      74.67500000      73.50100000      73.10000000      72.70000000      72.09400000      71.28100000      70.46800000      70.02000000      69.93700000      69.85400000      69.35600000      68.44300000      67.53100000      66.73700000      66.06100000      65.38400000      65.42000000      66.16600000      66.91300000      68.04700000      69.56800000      71.08900000      71.46100000      70.68300000      69.90600000
          87.23200000      87.40500000      87.57800000      87.66300000      87.66000000      87.65600000      87.69100000      87.76400000      87.83700000      87.88800000      87.91600000      87.94400000      87.89500000      87.76900000      87.64200000      87.42300000      87.11200000      86.80100000      86.64200000      86.63600000      86.63100000      86.86400000      87.33600000      87.80800000      88.25600000      88.68000000      89.10400000      89.47800000      89.80200000      90.12700000      90.06100000      89.60500000      89.14900000      87.93300000      85.95700000      83.98100000      84.30200000      86.92000000      89.53900000      91.12300000      91.67400000      92.22500000      92.47400000      92.42300000      92.37100000      91.28100000      89.15200000      87.02400000      84.86700000      82.68100000      80.49500000      78.51200000      76.73200000      74.95200000      73.80500000      73.29000000      72.77600000      72.04300000      71.09200000      70.14200000      69.79100000      70.04100000      70.29200000      69.95100000      69.01900000      68.08800000      67.27500000      66.58100000      65.88800000      65.79200000      66.29300000      66.79400000      67.80200000      69.31800000      70.83300000      71.29500000      70.70300000      70.11100000
          87.50800000      87.66700000      87.82600000      87.90900000      87.91400000      87.91900000      87.95800000      88.03200000      88.10600000      88.15000000      88.16300000      88.17700000      88.11200000      87.96800000      87.82300000      87.62400000      87.36900000      87.11400000      86.97600000      86.95500000      86.93400000      87.14400000      87.58700000      88.02900000      88.43800000      88.81300000      89.18700000      89.58900000      90.01800000      90.44700000      90.45500000      90.04000000      89.62500000      88.31400000      86.10700000      83.89900000      83.96300000      86.29800000      88.63300000      90.25000000      91.15000000      92.05000000      92.42300000      92.26800000      92.11300000      91.05700000      89.09800000      87.14000000      85.01900000      82.73600000      80.45300000      78.49900000      76.87400000      75.25000000      74.12400000      73.49600000      72.86900000      72.04200000      71.01400000      69.98600000      69.76900000      70.36100000      70.95400000      70.72700000      69.68200000      68.63700000      67.86400000      67.36300000      66.86200000      66.41700000      66.02700000      65.63700000      66.16300000      67.60600000      69.05000000      69.59400000      69.24000000      68.88700000
          87.78400000      87.92900000      88.07400000      88.15400000      88.16800000      88.18200000      88.22600000      88.30000000      88.37400000      88.41100000      88.41100000      88.41000000      88.32900000      88.16700000      88.00500000      87.82400000      87.62600000      87.42800000      87.31100000      87.27400000      87.23700000      87.42500000      87.83800000      88.25100000      88.62000000      88.94600000      89.27100000      89.70100000      90.23500000      90.76800000      90.84800000      90.47500000      90.10100000      88.69500000      86.25700000      83.81800000      83.62400000      85.67600000      87.72800000      89.37800000      90.62700000      91.87600000      92.37100000      92.11300000      91.85500000      90.83200000      89.04400000      87.25600000      85.17100000      82.79100000      80.41000000      78.48500000      77.01600000      75.54700000      74.44200000      73.70200000      72.96200000      72.04000000      70.93600000      69.83100000      69.74600000      70.68100000      71.61600000      71.50400000      70.34500000      69.18600000      68.45200000      68.14400000      67.83600000      67.04100000      65.76000000      64.47900000      64.52400000      65.89500000      67.26600000      67.89400000      67.77800000      67.66200000
          87.98800000      88.13700000      88.28600000      88.37300000      88.39900000      88.42400000      88.47800000      88.56100000      88.64400000      88.67700000      88.66100000      88.64400000      88.54300000      88.35800000      88.17200000      87.98400000      87.79500000      87.60600000      87.49100000      87.45000000      87.40900000      87.56300000      87.91200000      88.26200000      88.58700000      88.88800000      89.18900000      89.61900000      90.17800000      90.73600000      90.85500000      90.53200000      90.21000000      88.79700000      86.29300000      83.78900000      83.43100000      85.22000000      87.01000000      88.63300000      90.09000000      91.54700000      92.10200000      91.75300000      91.40500000      90.42500000      88.81500000      87.20400000      85.23100000      82.89400000      80.55700000      78.65700000      77.19400000      75.73100000      74.62600000      73.87700000      73.12800000      72.04200000      70.61900000      69.19600000      69.15400000      70.49200000      71.83100000      71.88600000      70.65900000      69.43200000      68.43700000      67.67400000      66.91100000      65.88900000      64.60800000      63.32800000      63.24700000      64.36600000      65.48500000      66.06500000      66.10500000      66.14500000
          88.12000000      88.29100000      88.46200000      88.56700000      88.60600000      88.64600000      88.71500000      88.81500000      88.91500000      88.94800000      88.91400000      88.87900000      88.75500000      88.54000000      88.32500000      88.10400000      87.87700000      87.64900000      87.51900000      87.48400000      87.45000000      87.55900000      87.81000000      88.06200000      88.33800000      88.63900000      88.94000000      89.34300000      89.84700000      90.35200000      90.47300000      90.21200000      89.95100000      88.61800000      86.21500000      83.81200000      83.38400000      84.93100000      86.47900000      88.01500000      89.54000000      91.06500000      91.61400000      91.18800000      90.76100000      89.83600000      88.41100000      86.98600000      85.19700000      83.04500000      80.89200000      79.01300000      77.40800000      75.80300000      74.67300000      74.02000000      73.36600000      72.04800000      70.06500000      68.08200000      67.99200000      69.79500000      71.59800000      71.87500000      70.62500000      69.37500000      67.81700000      65.95200000      64.08600000      62.95900000      62.57100000      62.18200000      62.33200000      63.01900000      63.70700000      64.10700000      64.22100000      64.33400000
          88.25200000      88.44400000      88.63700000      88.76000000      88.81400000      88.86700000      88.95200000      89.06900000      89.18600000      89.21900000      89.16700000      89.11400000      88.96600000      88.72200000      88.47800000      88.22400000      87.95800000      87.69200000      87.54600000      87.51900000      87.49100000      87.55500000      87.70800000      87.86200000      88.09000000      88.39100000      88.69200000      89.06700000      89.51700000      89.96700000      90.09200000      89.89100000      89.69100000      88.44000000      86.13700000      83.83500000      83.33600000      84.64200000      85.94900000      87.39800000      88.99000000      90.58300000      91.12700000      90.62200000      90.11800000      89.24600000      88.00700000      86.76800000      85.16400000      83.19600000      81.22800000      79.37000000      77.62200000      75.87400000      74.72100000      74.16300000      73.60400000      72.05400000      69.51100000      66.96800000      66.83100000      69.09800000      71.36600000      71.86300000      70.59000000      69.31700000      67.19700000      64.22900000      61.26200000      60.03000000      60.53300000      61.03700000      61.41700000      61.67300000      61.92900000      62.15000000      62.33700000      62.52400000
          88.37800000      88.58100000      88.78400000      88.92600000      89.00800000      89.08900000      89.19000000      89.30900000      89.42800000      89.45200000      89.38100000      89.31000000      89.13100000      88.84500000      88.55800000      88.27200000      87.98700000      87.70200000      87.55000000      87.53000000      87.51000000      87.54400000      87.63100000      87.71900000      87.89300000      88.15500000      88.41700000      88.74500000      89.13800000      89.53200000      89.56300000      89.23000000      88.89700000      87.70900000      85.66700000      83.62400000      83.14000000      84.21400000      85.28800000      86.63400000      88.25000000      89.86700000      90.38200000      89.79400000      89.20700000      88.38100000      87.31800000      86.25500000      84.72900000      82.74200000      80.75400000      78.90300000      77.18800000      75.47400000      74.46100000      74.14900000      73.83700000      72.21900000      69.29400000      66.36900000      66.03100000      68.28000000      70.52900000      70.94500000      69.52700000      68.11000000      65.75700000      62.46900000      59.18100000      58.01700000      58.97700000      59.93700000      60.40600000      60.38400000      60.36200000      60.46600000      60.69500000      60.92500000