# File generated by Flopy version 3.3.5 on 03/04/2022 at 11:14:27.
BEGIN options
END options

BEGIN nonlinear
  OUTER_DVCLOSE  1.00000000E-06
  OUTER_MAXIMUM  50
END nonlinear

BEGIN linear
  INNER_MAXIMUM  100
  INNER_DVCLOSE  1.00000000E-06
  inner_rclose     100.00000000  strict
END linear

