# File generated by Flopy version 3.3.5 on 03/04/2022 at 11:14:27.
BEGIN options
END options

BEGIN timing
  TDIS6  ex-gwf-lgrv-lgr.tdis
END timing

BEGIN models
  gwf6  parent.nam  parent
  gwf6  child.nam  child
END models

BEGIN exchanges
  GWF6-GWF6  ex-gwf-lgrv-lgr.gwfgwf  parent  child
END exchanges

BEGIN solutiongroup  1
  ims6  ex-gwf-lgrv-lgr.ims  parent  child
END solutiongroup  1

