# File generated by Flopy version 3.3.5 on 03/04/2022 at 11:14:28.
BEGIN options
END options

BEGIN dimensions
  MAXBOUND  33
END dimensions

BEGIN period  1
  1 29 47      38.16650000       0.03674000      37.66650000
  1 29 48      37.94240000       0.09185000      37.44240000
  1 29 49      37.66533333       0.05511000      37.16533333
  1 30 43      39.39433333       0.05511000      38.89433333
  1 30 44      39.11200000       0.05511000      38.61200000
  1 30 45      38.82640000       0.09185000      38.32640000
  1 30 46      38.51600000       0.05511000      38.01600000
  1 30 47      38.28850000       0.03674000      37.78850000
  1 30 49      37.55200000       0.01837000      37.05200000
  1 31 42      39.70575000       0.07348000      39.20575000
  1 31 43      39.52700000       0.01837000      39.02700000
  1 43 15      48.07200000       0.03674000      47.57200000
  1 44 14      48.43275000       0.07348000      47.93275000
  1 44 15      48.21666667       0.05511000      47.71666667
  1 45 2      51.97700000       0.01837000      51.47700000
  1 45 3      51.97000000       0.01837000      51.47000000
  1 45 12      48.95800000       0.01837000      48.45800000
  1 45 13      48.76180000       0.09185000      48.26180000
  1 45 14      48.57400000       0.01837000      48.07400000
  1 46 3      51.79820000       0.09185000      51.29820000
  1 46 4      51.62600000       0.01837000      51.12600000
  1 46 10      49.55000000       0.01837000      49.05000000
  1 46 11      49.38725000       0.07348000      48.88725000
  1 46 12      49.11700000       0.07348000      48.61700000
  1 47 4      51.45420000       0.09185000      50.95420000
  1 47 5      51.28200000       0.01837000      50.78200000
  1 47 9      49.95425000       0.07348000      49.45425000
  1 47 10      49.70050000       0.07348000      49.20050000
  1 48 5      51.13900000       0.07348000      50.63900000
  1 48 6      50.87975000       0.07348000      50.37975000
  1 48 7      50.56900000       0.05511000      50.06900000
  1 48 8      50.28766667       0.05511000      49.78766667
  1 48 9      50.09700000       0.01837000      49.59700000
END period  1

