# File generated by Flopy version 3.3.5 on 03/04/2022 at 11:14:28.
BEGIN griddata
  strt  LAYERED
    INTERNAL  FACTOR  1.0
          76.60988889      78.28488889      80.46600000      82.71066667      83.79644444      83.77955556      83.26333333      82.11555556      80.59077778      78.64677778      77.17955556      75.86211111      73.40233333      70.80022222      68.61611111      66.85200000      65.22533333      64.66955556      63.97877778      60.41288889      57.67422222      58.33200000      58.47600000      58.07055556      58.03155556      57.00744444      56.12588889      56.13366667      56.77000000      57.18766667      57.05400000      56.69955556      55.59311111      55.65488889      57.69300000      59.38422222      60.01577778      59.59311111      57.95555556      55.75422222      53.38188889      50.85977778      48.13488889      44.50988889      40.58955556      37.12577778      34.78555556      33.50577778      32.25311111
          75.57933333      76.06233333      77.76711111      80.51666667      82.06133333      82.32477778      82.11977778      80.98966667      79.85500000      78.06888889      75.65977778      73.42488889      70.45700000      67.24888889      65.00588889      63.95200000      62.64766667      61.16522222      59.96822222      58.33644444      58.05966667      59.30966667      59.72111111      59.71100000      60.06000000      60.06366667      60.26822222      60.70577778      61.08677778      60.99811111      60.11700000      59.41688889      58.22244444      57.12144444      58.06400000      59.59633333      60.28000000      60.24644444      58.54822222      55.81300000      53.89111111      52.29622222      49.86877778      46.09511111      41.71177778      37.83155556      35.23911111      33.82677778      32.67722222
          76.33200000      75.42055556      75.58533333      77.78511111      79.84933333      80.57733333      80.53644444      79.70166667      78.73988889      76.74566667      73.47155556      70.51066667      67.30811111      63.52800000      61.44388889      61.01855556      59.80588889      58.42744444      57.80355556      57.50000000      57.72855556      58.97877778      60.56288889      61.68911111      62.66700000      63.18577778      63.90911111      64.60466667      64.95200000      64.60466667      63.19344444      61.95266667      60.34077778      58.75266667      58.95377778      60.08277778      60.85088889      60.88911111      59.28411111      56.42800000      54.25144444      52.85277778      50.85933333      47.31044444      42.62966667      38.40222222      35.59566667      34.05644444      32.99888889
          78.92911111      77.23088889      75.51311111      75.66300000      77.37022222      78.56388889      78.95188889      78.62633333      77.55922222      74.94666667      71.12400000      67.77188889      64.40388889      61.30133333      60.04111111      59.47866667      58.52922222      57.80055556      57.50000000      57.71711111      57.71711111      58.65888889      61.07855556      63.35977778      65.25188889      66.14222222      66.82977778      67.63544444      68.24722222      68.25322222      66.49255556      64.03255556      61.59911111      60.23800000      60.33722222      60.79633333      61.43266667      61.53000000      60.30200000      57.42744444      54.53911111      52.68122222      50.66777778      47.69022222      43.15433333      38.71677778      35.94655556      34.41333333      33.40711111
          82.16355556      80.47266667      77.29522222      74.64811111      75.17988889      76.81622222      77.29955556      77.55466667      76.60366667      73.34088889      69.00111111      65.27633333      62.60622222      61.46066667      61.22266667      60.55733333      59.97100000      59.36900000      59.04311111      59.63166667      59.36200000      59.38700000      61.71411111      64.47700000      67.21533333      68.85111111      69.38277778      70.53422222      71.33111111      71.32866667      69.16655556      65.33611111      62.51766667      61.69600000      61.79822222      61.82633333      62.09577778      62.03811111      60.93866667      58.14877778      54.87566667      52.11255556      49.31855556      46.46933333      42.58966667      38.77977778      36.40511111      34.86733333      33.82211111
          84.44177778      83.32877778      79.90288889      75.02188889      73.51733333      75.08477778      75.66566667      76.20900000      75.35000000      71.60366667      67.03055556      63.66644444      62.39011111      62.59111111      62.75266667      62.56266667      62.52333333      62.21622222      62.30088889      62.81455556      61.67366667      60.73033333      62.96666667      65.83222222      68.81877778      71.11266667      72.03644444      73.32933333      73.82733333      73.07677778      70.12611111      65.86588889      63.32055556      62.60488889      62.50000000      62.50000000      62.50000000      62.34511111      60.97277778      57.89511111      54.76555556      52.05855556      49.47088889      46.50911111      42.84800000      39.49511111      36.90200000      35.24755556      34.35766667
          85.55766667      84.72944444      81.84222222      76.39688889      73.09233333      73.66355556      74.33400000      74.56000000      73.20088889      69.09122222      64.94277778      63.24477778      63.17166667      63.56688889      64.04577778      64.35933333      64.97900000      65.37066667      65.63022222      65.64944444      63.68655556      61.97422222      63.67700000      67.21055556      70.96511111      73.30444444      74.25533333      74.84644444      74.66344444      72.94255556      69.40222222      65.91688889      64.02966667      62.98588889      62.50000000      62.50000000      62.50000000      62.50000000      60.99277778      57.73788889      55.08644444      53.44477778      51.71800000      48.67188889      44.60400000      40.49777778      37.20200000      35.50166667      34.85566667
          86.31855556      85.08211111      82.23977778      77.81300000      74.01200000      72.89633333      73.12288889      72.76688889      70.29000000      66.58377778      64.51600000      64.30733333      64.51588889      64.85288889      65.64744444      66.42122222      67.49033333      68.40177778      68.65900000      68.09611111      65.76744444      63.87144444      64.60733333      67.93222222      72.32322222      75.15000000      75.87700000      75.34766667      74.13900000      71.43922222      68.04722222      65.74700000      64.61511111      63.36500000      62.50000000      62.50000000      62.50000000      62.33233333      60.94088889      58.53277778      56.63733333      55.28277778      53.14411111      49.64355556      45.49511111      41.15155556      37.72111111      35.80377778      35.05800000
          86.83988889      84.98800000      81.87788889      78.90166667      75.69577778      72.66244444      72.03400000      71.32222222      67.97666667      65.80600000      66.14300000      66.26400000      66.06944444      66.26288889      67.18077778      68.62988889      70.09211111      71.01388889      70.98911111      69.87022222      67.44533333      66.22333333      67.06333333      68.59433333      71.61144444      75.42188889      76.90877778      75.75200000      73.55688889      70.23033333      67.41800000      65.88411111      64.77577778      63.43700000      62.50000000      62.50000000      62.50000000      62.16466667      61.04977778      59.35322222      57.60433333      55.84977778      53.36200000      50.15777778      46.38722222      42.17055556      38.67000000      36.47166667      35.34488889
          86.98100000      84.73666667      81.51277778      79.46955556      76.95633333      72.67155556      70.78400000      69.99688889      67.44033333      67.03311111      68.09522222      67.94355556      67.81622222      68.13600000      68.99300000      70.74788889      72.33855556      72.81011111      72.31233333      70.90377778      68.75955556      68.37722222      69.84155556      70.00377778      71.08800000      74.84122222      77.01388889      75.77933333      73.07911111      70.02644444      67.91955556      66.54344444      64.87200000      63.43844444      62.87333333      62.81822222      62.74166667      62.71500000      62.00600000      60.15488889      57.85366667      55.65866667      53.17888889      50.22922222      46.55177778      43.01911111      40.15977778      37.68988889      35.99544444
          86.82566667      84.09088889      80.80222222      79.24866667      76.97166667      73.00477778      70.49466667      69.08444444      68.02822222      69.24733333      70.16255556      69.52422222      69.65522222      70.43511111      71.15088889      72.26211111      73.72144444      74.00122222      73.14088889      71.73333333      70.02088889      69.95211111      71.43011111      71.34666667      71.76900000      74.84933333      76.84666667      75.63222222      73.04555556      70.52300000      68.58844444      66.76244444      65.05000000      64.45077778      64.40977778      64.11911111      64.14411111      64.60311111      64.09000000      62.06833333      59.43233333      57.00511111      54.25500000      50.72833333      47.12488889      45.02144444      42.82311111      39.48500000      37.02722222
          86.11522222      82.98466667      79.73600000      78.37911111      76.57888889      74.28266667      72.35022222      70.58822222      70.11255556      71.26277778      71.81744444      71.44433333      71.81477778      72.80266667      73.61411111      73.85144444      74.46800000      74.76888889      73.92288889      72.62644444      71.24300000      70.99733333      71.97677778      72.15088889      72.59033333      75.05988889      76.78344444      75.75055556      73.65944444      71.28966667      68.84766667      66.75522222      65.60144444      66.18588889      66.79100000      66.45344444      66.73566667      67.28500000      66.87688889      65.24300000      62.54622222      59.42066667      56.01644444      52.71800000      50.07622222      48.22866667      45.69011111      41.82188889      38.45922222
          84.51800000      81.68922222      78.55311111      77.31766667      76.73755556      76.30566667      75.19633333      73.67455556      73.07377778      73.12922222      73.38411111      73.83722222      74.51611111      75.38277778      76.22466667      76.04588889      75.70444444      75.63111111      74.73933333      73.43788889      72.29855556      72.09011111      72.67811111      72.73388889      73.12222222      75.40977778      77.13333333      76.41944444      74.71744444      72.37711111      69.67033333      67.62233333      66.82777778      67.93766667      68.77900000      68.45911111      68.92088889      69.59055556      69.31500000      68.03466667      65.20800000      61.08755556      57.76122222      55.60377778      53.48977778      51.01666667      48.24188889      44.31900000      39.97833333
          82.22333333      79.92322222      77.04588889      76.20955556      77.32500000      78.41866667      77.98955556      76.61011111      76.03822222      75.81800000      75.73055556      76.37500000      77.08288889      77.74888889      78.40588889      78.04400000      77.24022222      76.88777778      76.01055556      74.57655556      73.33011111      73.18655556      73.73133333      73.25155556      73.63711111      76.34411111      78.06011111      77.48744444      75.90122222      73.56822222      70.91800000      68.81311111      68.10466667      69.12933333      69.88077778      69.66300000      69.97788889      71.04111111      71.15388889      69.88933333      66.83988889      62.70222222      60.28244444      58.87188889      56.57811111      53.49933333      50.09088889      45.67855556      40.69844444
          79.97944444      77.88422222      75.82322222      75.96000000      78.20266667      79.71111111      79.64200000      79.03000000      78.96777778      78.86800000      78.59500000      78.65466667      78.84488889      79.27744444      79.62966667      79.10922222      78.10444444      77.74000000      77.32644444      76.04200000      74.64422222      74.33100000      74.63055556      74.12611111      74.73511111      77.57655556      79.24755556      78.83388889      77.33922222      74.71422222      71.83488889      69.92255556      69.36700000      69.80500000      70.73555556      70.84022222      70.63533333      71.69033333      72.33577778      71.27244444      67.46211111      63.43766667      62.02966667      61.02488889      58.72088889      55.31888889      51.14866667      46.04777778      40.56900000
          78.73822222      76.48166667      75.52933333      76.53511111      78.43544444      79.68611111      79.99322222      80.34800000      80.91755556      80.92644444      80.59888889      80.21733333      79.95877778      79.97622222      80.00000000      79.54755556      78.67855556      78.24966667      78.13411111      77.23311111      76.06777778      75.56955556      75.25588889      74.89500000      75.63811111      78.20855556      79.97288889      79.88000000      78.54555556      75.80422222      72.92400000      71.17711111      70.34800000      70.09055556      71.25388889      71.96022222      71.27255556      72.14044444      73.44822222      71.72433333      66.64077778      62.94988889      62.50000000      61.85688889      59.93344444      57.01255556      52.80622222      47.01077778      40.71733333
          78.39700000      76.11300000      75.97800000      77.02555556      77.87322222      79.01266667      79.97800000      80.88566667      81.86088889      82.01144444      81.58911111      81.04133333      80.61611111      80.29355556      80.07700000      79.85966667      79.28144444      78.82088889      78.73888889      78.14588889      77.39288889      76.89211111      76.16122222      75.77900000      76.40955556      78.12455556      80.03177778      80.71733333      79.32533333      76.84600000      74.49366667      72.45666667      70.80755556      70.20811111      71.45788889      72.51866667      71.44455556      71.98577778      73.32833333      69.97188889      64.77366667      62.32544444      62.14077778      62.06455556      61.08022222      58.61222222      54.01055556      47.69877778      41.05044444
          77.95966667      76.66544444      77.02488889      77.69300000      78.21466667      79.16011111      80.30033333      81.48633333      82.33566667      82.48744444      82.26477778      81.70433333      81.15633333      80.76411111      80.37966667      80.09511111      79.75400000      79.43477778      79.36844444      79.11100000      78.84700000      78.51066667      77.65977778      77.59077778      78.06800000      78.28066667      80.15755556      81.86455556      80.65100000      78.51911111      76.21588889      73.60066667      71.19044444      70.91377778      72.34911111      73.17166667      71.76411111      70.58588889      70.00300000      66.13488889      62.50433333      61.19488889      60.86744444      61.07722222      61.06600000      58.99911111      53.79400000      46.96500000      40.38622222
          76.70233333      76.67377778      78.03733333      78.73866667      79.40900000      80.50466667      81.41588889      82.15666667      82.50000000      82.50000000      82.48144444      82.19311111      81.70377778      81.29200000      80.81222222      80.26233333      79.96288889      79.87400000      80.08377778      80.23077778      80.21788889      79.94711111      79.29055556      79.74044444      80.59233333      79.71788889      80.96044444      83.38377778      82.76244444      80.85377778      77.96244444      74.75111111      71.91211111      71.87255556      73.68655556      74.37966667      72.17177778      68.39011111      65.64622222      62.75122222      60.83211111      60.18955556      59.81600000      59.56111111      59.74088889      58.52766667      53.63955556      46.33600000      39.47277778
          75.53966667      76.48577778      78.95844444      80.03966667      80.68977778      81.74644444      82.34322222      82.46988889      82.50000000      82.50000000      82.50000000      82.42088889      82.17822222      81.80122222      81.27400000      80.73766667      80.43300000      80.52200000      81.05733333      81.38366667      81.40744444      81.03800000      80.77288889      81.64433333      82.86411111      82.26366667      82.56411111      85.14200000      85.43566667      83.40222222      80.08011111      76.32244444      73.29000000      72.47400000      73.76911111      74.72400000      72.00688889      67.25622222      64.04633333      61.47700000      60.18000000      60.00000000      59.63455556      58.83455556      58.51544444      57.89466667      53.80500000      46.71100000      39.68877778
          75.14288889      76.90200000      80.03455556      81.64744444      82.32700000      82.77188889      82.83677778      82.62655556      82.50000000      82.50000000      82.57555556      82.74411111      82.75300000      82.38433333      81.89533333      81.64633333      81.51477778      81.79866667      82.39711111      82.58655556      82.50388889      82.10077778      82.19100000      83.19822222      84.35655556      84.58400000      83.75344444      86.11700000      88.19300000      86.45133333      82.91600000      78.66733333      75.21677778      72.98800000      72.84877778      73.12900000      70.62400000      66.62877778      63.73622222      61.20122222      60.00000000      60.00000000      59.64600000      58.23355556      56.71533333      55.63922222      52.30211111      46.66055556      40.51266667
          75.00000000      77.24155556      81.20588889      83.60400000      84.22166667      83.93777778      83.40211111      82.79633333      82.50000000      82.53011111      82.84877778      83.35244444      83.54311111      83.24200000      82.90300000      82.98955556      82.97533333      83.32133333      83.91688889      83.83755556      83.52400000      83.26366667      83.66222222      84.68177778      85.89200000      86.00577778      84.20277778      86.86622222      90.63433333      89.69255556      86.21466667      81.45188889      77.15122222      73.73244444      72.50000000      71.21288889      67.98266667      65.11422222      63.24900000      61.34488889      60.39911111      60.51722222      60.54388889      58.85788889      55.06766667      51.81555556      48.82588889      45.04166667      40.55477778
          75.00000000      77.07166667      81.80022222      85.44588889      85.70111111      84.32100000      83.25688889      82.66977778      82.50000000      82.65011111      83.22488889      83.96311111      84.39033333      84.30822222      84.22766667      84.70011111      84.71488889      85.04133333      85.64566667      85.23877778      84.63811111      84.49588889      85.21300000      86.35233333      87.49477778      87.15666667      84.94755556      87.84922222      92.12500000      91.73466667      88.22988889      82.70333333      77.22677778      73.38433333      72.26411111      70.41533333      66.90166667      64.87133333      64.11744444      64.08677778      63.86477778      62.45811111      61.94288889      59.95200000      54.69144444      49.78244444      46.59344444      43.61955556      40.09111111
          75.51433333      76.81800000      80.40455556      84.88277778      85.89766667      83.86088889      82.69133333      82.50000000      82.50000000      82.82333333      83.57577778      84.41100000      85.08677778      85.29077778      85.64700000      86.42377778      86.58744444      86.81155556      87.19833333      86.85077778      86.11500000      85.80422222      86.61055556      87.92322222      88.97755556      88.62888889      85.68600000      87.73555556      92.21788889      92.37400000      88.88211111      82.62800000      76.54600000      72.92611111      71.58000000      70.04811111      67.95466667      65.80000000      65.64633333      68.35788889      69.18233333      65.15777778      62.50000000      59.53344444      54.11100000      50.04966667      47.13722222      44.28022222      40.36066667
          77.05200000      77.46466667      78.27966667      82.03200000      84.54166667      83.17722222      82.18966667      82.14555556      82.34366667      82.90744444      83.75200000      84.67311111      85.58733333      86.14633333      86.85166667      87.66700000      87.91388889      88.03200000      88.16333333      87.96777778      87.36900000      86.95511111      87.58688889      88.81277778      90.01833333      90.03988889      86.10677778      86.29811111      91.15033333      92.26788889      89.09822222      82.73588889      76.87411111      73.49622222      71.01400000      70.36122222      69.68211111      67.36277778      66.02666667      67.60633333      69.24044444      65.53277778      61.80166667      57.77255556      52.86133333      50.37811111      48.11911111      45.43800000      41.26944444
          78.62955556      78.77600000      78.06422222      80.32011111      82.61944444      81.98777778      81.33055556      81.21900000      81.76066667      82.68500000      83.59533333      84.60888889      85.81344444      86.83277778      87.61600000      88.29077778      88.60622222      88.81500000      88.91366667      88.53988889      87.87655556      87.48433333      87.81033333      88.63933333      89.84733333      90.21188889      86.21511111      84.93133333      89.54011111      91.18777778      88.41088889      83.04488889      77.40800000      74.01977778      70.06500000      69.79522222      70.62466667      65.95166667      62.57077778      63.01944444      64.22088889      63.07100000      60.29722222      56.46766667      52.87711111      50.73533333      48.38922222      45.35211111      41.41822222
          79.37011111      79.75400000      79.31166667      80.31800000      81.11155556      80.59177778      80.39088889      80.32344444      80.88166667      82.05244444      83.21111111      84.30888889      85.69811111      87.03366667      87.97566667      88.69944444      89.18833333      89.53377778      89.55644444      88.90700000      87.96444444      87.51800000      87.57877778      87.93244444      88.71122222      88.22700000      84.80377778      83.64622222      87.32055556      88.70344444      86.34400000      81.68222222      76.10744444      73.97877778      69.41333333      67.33988889      67.43533333      60.67044444      57.90211111      59.15388889      59.29677778      59.48011111      57.57933333      55.28055556      53.33155556      51.00333333      48.46144444      44.77200000      40.90477778
          79.77811111      80.00000000      79.80633333      79.80211111      79.99566667      80.00000000      80.00000000      79.78622222      79.90655556      81.17400000      82.82300000      84.12066667      85.49533333      86.89388889      87.98733333      88.91800000      89.61622222      89.93577778      89.77700000      88.79511111      87.76800000      87.50000000      87.50000000      87.54900000      87.55000000      86.12366667      83.00122222      81.59055556      83.75888889      84.38622222      82.48322222      78.22588889      72.95000000      71.43022222      67.93866667      63.74688889      60.25233333      55.28655556      53.89577778      53.75088889      53.41911111      54.23800000      53.28266667      51.92188889      50.21266667      47.97077778      45.83600000      42.52411111      39.70733333
          80.00000000      80.00000000      79.80900000      78.92044444      79.11122222      80.00000000      79.94988889      79.18233333      78.92066667      80.58111111      82.75922222      84.28811111      85.41244444      86.62311111      87.74811111      88.86000000      89.74422222      90.00000000      89.68422222      88.46288889      87.36466667      86.95611111      86.85411111      86.71888889      86.05377778      84.78877778      81.95311111      79.17144444      79.26277778      78.79400000      78.20088889      74.86422222      68.75688889      65.43077778      61.93877778      56.69122222      51.53777778      48.78577778      47.97544444      46.96011111      46.08777778      46.93822222      47.22800000      46.20022222      44.14400000      42.25577778      40.73222222      38.99522222      38.07388889
          80.00000000      80.00000000      80.00000000      78.51244444      77.21388889      78.48688889      79.16522222      77.50200000      77.23577778      79.67611111      82.34022222      84.27811111      85.23644444      86.02022222      87.20911111      88.52211111      89.59688889      90.00000000      89.44333333      87.78633333      86.07566667      85.35166667      85.50322222      84.23466667      82.85877778      82.68744444      80.35200000      76.11677778      73.62166667      72.90833333      72.67488889      68.47833333      61.57777778      57.65000000      53.57511111      48.40333333      44.94833333      43.73555556      43.36000000      42.65077778      41.54500000      41.42511111      41.81477778      41.95344444      41.66044444      40.34100000      38.68555556      37.79044444      37.56600000
          79.52688889      79.65555556      79.59266667      78.15311111      75.17833333      75.19988889      76.35166667      74.30555556      73.61100000      76.70455556      80.17666667      82.65655556      84.16511111      85.06100000      86.47433333      87.85988889      88.96088889      89.33522222      87.12833333      85.21488889      82.74322222      81.58122222      82.88188889      80.56088889      78.21877778      77.60500000      74.70555556      70.00011111      66.49700000      65.73722222      64.68811111      59.08133333      53.21366667      50.82866667      47.87933333      44.23188889      42.76433333      42.50000000      42.24100000      41.26766667      40.67722222      41.65622222      42.55888889      43.44366667      44.02800000      42.25000000      39.80711111      38.41900000      37.72500000
          77.87733333      78.21711111      77.99344444      76.92100000      73.53322222      71.22166667      71.88377778      70.70911111      69.66288889      72.68977778      76.20300000      78.74000000      81.43900000      83.68433333      85.59811111      86.83555556      87.77888889      87.86755556      84.18100000      81.58422222      77.48566667      75.05488889      76.11777778      73.18555556      69.97077778      67.61766667      65.52277778      63.12577778      60.74355556      58.93200000      57.07988889      52.08444444      47.57844444      46.73933333      45.52800000      43.34122222      42.50000000      42.50000000      42.29466667      42.26977778      43.44866667      46.38388889      48.22733333      48.02244444      46.81933333      43.91300000      40.84911111      38.87600000      37.82644444
          75.47222222      76.00344444      74.80000000      72.79233333      70.41400000      68.30766667      68.49788889      68.23277778      67.81888889      69.96733333      72.41344444      74.46133333      77.34711111      81.30900000      84.44277778      85.48411111      86.28400000      86.28044444      81.55266667      75.41200000      70.43822222      67.05622222      65.12733333      61.98255556      59.54055556      58.46555556      58.98433333      58.65900000      56.35500000      53.49544444      51.27077778      48.49777778      45.77600000      45.19833333      44.30200000      42.85344444      42.50000000      42.67644444      43.82488889      46.89877778      50.24188889      52.39855556      52.84555556      51.18800000      48.20166667      44.44388889      41.25444444      39.10766667      37.84466667
          73.27400000      74.07777778      71.91311111      69.24411111      69.24677778      68.51044444      67.46788889      67.12733333      66.97611111      68.01500000      70.31988889      72.45644444      74.24422222      78.96411111      83.02611111      83.72722222      84.15911111      83.84933333      79.03333333      69.86588889      63.01611111      59.07955556      55.79733333      53.42400000      52.56511111      53.44466667      54.95300000      54.57600000      51.80288889      48.98022222      47.21700000      46.20111111      45.38333333      45.00000000      44.06077778      43.50366667      43.85233333      45.44388889      49.46100000      53.90322222      56.88177778      56.97144444      55.35622222      52.66977778      48.50733333      44.38566667      41.49933333      39.45722222      37.96555556
          70.98733333      72.07288889      70.05266667      68.83522222      70.47800000      69.50000000      67.24088889      66.35811111      65.82366667      66.18477778      68.91255556      71.59900000      73.06666667      77.65377778      81.08733333      81.38011111      80.82111111      79.13566667      74.01400000      64.34700000      56.49611111      53.10988889      51.43544444      50.44777778      50.16377778      50.65277778      51.43188889      50.86233333      48.90488889      47.39666667      46.60466667      46.23911111      46.23400000      46.23900000      46.05000000      47.37422222      49.41455556      52.13666667      56.76322222      60.25311111      61.49611111      60.33400000      57.50788889      53.38822222      48.48200000      44.63488889      41.98300000      39.93633333      38.22944444