# File generated by Flopy version 3.3.5 on 03/04/2022 at 11:14:28.
BEGIN options
  SAVE_SPECIFIC_DISCHARGE
  K33OVERK
END options

BEGIN griddata
  icelltype
    CONSTANT  0
  k  LAYERED
    INTERNAL  FACTOR  1.0
      1.00000000E-06  1.00000000E-06  1.00000000E-06  1.00000000E-06  1.00000000E-06  1.00000000E-06  1.00000000E-06  1.00000000E-06  1.00000000E-06  1.00000000E-06  1.00000000E-06  1.00000000E-06  1.00000000E-06  1.00000000E-06  1.00000000E-06  1.00000000E-06  1.00000000E-06  1.00000000E-06  1.00000000E-06  1.00000000E-06  1.00000000E-06  1.00000000E-06  1.00000000E-06  1.00000000E-06  1.00000000E-06  1.00000000E-06  1.00000000E-06  1.00000000E-06  1.00000000E-06  1.00000000E-06  1.00000000E-06  1.00000000E-06  1.00000000E-06  1.00000000E-06  1.00000000E-06  1.00000000E-06  1.00000000E-06  1.00000000E-06  1.00000000E-06  1.00000000E-06  1.00000000E-06  1.00000000E-06  1.00000000E-06  1.00000000E-06  1.00000000E-06  1.00000000E-06  1.00000000E-06  1.00000000E-06  1.00000000E-06
      1.00000000E-06  1.00000000E-06  1.00000000E-06  1.00000000E-06  1.00000000E-06  1.00000000E-06  1.00000000E-06  1.00000000E-06  1.00000000E-06  1.00000000E-06  1.00000000E-06  1.00000000E-06  1.00000000E-06  1.00000000E-06  1.00000000E-06  1.00000000E-06  1.00000000E-06  1.00000000E-06  1.00000000E-06  1.00000000E-06  1.00000000E-06  1.00000000E-06  1.00000000E-06  1.00000000E-06  1.00000000E-06  1.00000000E-06  1.00000000E-06  1.00000000E-06  1.00000000E-06  1.00000000E-06  1.00000000E-06  1.00000000E-06  1.00000000E-06  1.00000000E-06  1.00000000E-06  1.00000000E-06  1.00000000E-06  1.00000000E-06  1.00000000E-06  1.00000000E-06  1.00000000E-06  1.00000000E-06  1.00000000E-06  1.00000000E-06  1.00000000E-06  1.00000000E-06  1.00000000E-06  1.00000000E-06  1.00000000E-06
      1.00000000E-06  1.00000000E-06  1.00000000E-06  1.00000000E-06  1.00000000E-06  1.00000000E-06  1.00000000E-06  1.00000000E-06  1.00000000E-06  1.00000000E-06  1.00000000E-06  1.00000000E-06  1.00000000E-06  1.00000000E-06  1.00000000E-06  1.00000000E-06  1.00000000E-06  1.00000000E-06  1.00000000E-06  1.00000000E-06  1.00000000E-06  1.00000000E-06  1.00000000E-06  1.00000000E-06  1.00000000E-06  1.00000000E-06  1.00000000E-06  1.00000000E-06  1.00000000E-06  1.00000000E-06  1.00000000E-06  1.00000000E-06  1.00000000E-06  1.00000000E-06  1.00000000E-06  1.00000000E-06  1.00000000E-06  1.00000000E-06  1.00000000E-06  1.00000000E-06  1.00000000E-06  1.00000000E-06  1.00000000E-06  1.00000000E-06  1.00000000E-06  1.00000000E-06  1.00000000E-06  1.00000000E-06  1.00000000E-06
      1.00000000E-06  1.00000000E-06  1.00000000E-06  1.00000000E-06  1.00000000E-06  1.00000000E-06  1.00000000E-06  1.00000000E-06  1.00000000E-06  1.00000000E-06  1.00000000E-06  1.00000000E-06  1.00000000E-06  1.00000000E-06  1.00000000E-06  1.00000000E-06  1.00000000E-06  1.00000000E-06  1.00000000E-06  1.00000000E-06  1.00000000E-06  1.00000000E-06  1.00000000E-06  1.00000000E-06  1.00000000E-06  1.00000000E-06  1.00000000E-06  1.00000000E-06  1.00000000E-06  1.00000000E-06  1.00000000E-06  1.00000000E-06  1.00000000E-06  1.00000000E-06  1.00000000E-06  1.00000000E-06  1.00000000E-06  1.00000000E-06  1.00000000E-06  1.00000000E-06  1.00000000E-06  1.00000000E-06  1.00000000E-06  1.00000000E-06  1.00000000E-06  1.00000000E-06  1.00000000E-06  1.00000000E-06  1.00000000E-06
      1.00000000E-06  1.00000000E-06  1.00000000E-06  1.00000000E-06  1.00000000E-06  1.00000000E-06  1.00000000E-06  1.00000000E-06  1.00000000E-06  1.00000000E-06  1.00000000E-06  1.00000000E-06  1.00000000E-06  1.00000000E-06  1.00000000E-06  1.00000000E-06  1.00000000E-06  1.00000000E-06  1.00000000E-06  1.00000000E-06  1.00000000E-06  1.00000000E-06  1.00000000E-06  1.00000000E-06  1.00000000E-06  1.00000000E-06  1.00000000E-06  1.00000000E-06  1.00000000E-06  1.00000000E-06  1.00000000E-06  1.00000000E-06  1.00000000E-06  1.00000000E-06  1.00000000E-06  1.00000000E-06  1.00000000E-06  1.00000000E-06  1.00000000E-06  1.00000000E-06  1.00000000E-06  1.00000000E-06  1.00000000E-06  1.00000000E-06  1.00000000E-06  1.00000000E-06  1.00000000E-06  1.00000000E-06  1.00000000E-06
      1.00000000E-06  1.00000000E-06  1.00000000E-06  1.00000000E-06  1.00000000E-06  1.00000000E-06  1.00000000E-06  1.00000000E-06  1.00000000E-06  1.00000000E-06  1.00000000E-06  1.00000000E-06  1.00000000E-06  1.00000000E-06  1.00000000E-06  1.00000000E-06  1.00000000E-06  1.00000000E-06  1.00000000E-06  1.00000000E-06  1.00000000E-06  1.00000000E-06  1.00000000E-06  1.00000000E-06  1.00000000E-06  1.00000000E-06  1.00000000E-06  1.00000000E-06  1.00000000E-06  1.00000000E-06  1.00000000E-06  1.00000000E-06  1.00000000E-06  1.00000000E-06  1.00000000E-06  1.00000000E-06  1.00000000E-06  1.00000000E-06  1.00000000E-06  1.00000000E-06  1.00000000E-06  1.00000000E-06  1.00000000E-06  1.00000000E-06  1.00000000E-06  1.00000000E-06  1.00000000E-06  1.00000000E-06  1.00000000E-06
      1.00000000E-06  1.00000000E-06  1.00000000E-06  1.00000000E-06  1.00000000E-06  1.00000000E-06  1.00000000E-06  1.00000000E-06  1.00000000E-06  1.00000000E-06  1.00000000E-06  1.00000000E-06  1.00000000E-06  1.00000000E-06  1.00000000E-06  1.00000000E-06  1.00000000E-06  1.00000000E-06  1.00000000E-06  1.00000000E-06  1.00000000E-06  1.00000000E-06  1.00000000E-06  1.00000000E-06  1.00000000E-06  1.00000000E-06  1.00000000E-06  1.00000000E-06  1.00000000E-06  1.00000000E-06  1.00000000E-06  1.00000000E-06  1.00000000E-06  1.00000000E-06  1.00000000E-06  1.00000000E-06  1.00000000E-06  1.00000000E-06  1.00000000E-06  1.00000000E-06  1.00000000E-06  1.00000000E-06  1.00000000E-06  1.00000000E-06  1.00000000E-06  1.00000000E-06  1.00000000E-06  1.00000000E-06  1.00000000E-06
      1.00000000E-06  1.00000000E-06  1.00000000E-06  1.00000000E-06  1.00000000E-06  1.00000000E-06  1.00000000E-06  1.00000000E-06  1.00000000E-06  1.00000000E-06  1.00000000E-06  1.00000000E-06  1.00000000E-06  1.00000000E-06  1.00000000E-06  1.00000000E-06  1.00000000E-06  1.00000000E-06  1.00000000E-06  1.00000000E-06  1.00000000E-06  1.00000000E-06  1.00000000E-06  1.00000000E-06  1.00000000E-06  1.00000000E-06  1.00000000E-06  1.00000000E-06  1.00000000E-06  1.00000000E-06  1.00000000E-06  1.00000000E-06  1.00000000E-06  1.00000000E-06  1.00000000E-06  1.00000000E-06  1.00000000E-06  1.00000000E-06  1.00000000E-06  1.00000000E-06  1.00000000E-06  1.00000000E-06  1.00000000E-06  1.00000000E-06  1.00000000E-06  1.00000000E-06  1.00000000E-06  1.00000000E-06  1.00000000E-06
      1.00000000E-06  1.00000000E-06  1.00000000E-06  1.00000000E-06  1.00000000E-06  1.00000000E-06  1.00000000E-06  1.00000000E-06  1.00000000E-06  1.00000000E-06  1.00000000E-06  1.00000000E-06  1.00000000E-06  1.00000000E-06  1.00000000E-06  1.00000000E-06  1.00000000E-06  1.00000000E-06  1.00000000E-06  1.00000000E-06  1.00000000E-06  1.00000000E-06  1.00000000E-06  1.00000000E-06  1.00000000E-06  1.00000000E-06  1.00000000E-06  1.00000000E-06  1.00000000E-06  1.00000000E-06  1.00000000E-06  1.00000000E-06  1.00000000E-06  1.00000000E-06  1.00000000E-06  1.00000000E-06  1.00000000E-06  1.00000000E-06  1.00000000E-06  1.00000000E-06  1.00000000E-06  1.00000000E-06  1.00000000E-06  1.00000000E-06  1.00000000E-06  1.00000000E-06  1.00000000E-06  1.00000000E-06  1.00000000E-06
      1.00000000E-06  1.00000000E-06  1.00000000E-06  1.00000000E-06  1.00000000E-06  1.00000000E-06  1.00000000E-06  1.00000000E-06  1.00000000E-06  1.00000000E-06  1.00000000E-06  1.00000000E-06  1.00000000E-06  1.00000000E-06  1.00000000E-06  1.00000000E-06  1.00000000E-06  1.00000000E-06  1.00000000E-06  1.00000000E-06  1.00000000E-06  1.00000000E-06  1.00000000E-06  1.00000000E-06  1.00000000E-06  1.00000000E-06  1.00000000E-06  1.00000000E-06  1.00000000E-06  1.00000000E-06  1.00000000E-06  1.00000000E-06  1.00000000E-06  1.00000000E-06  1.00000000E-06  1.00000000E-06  1.00000000E-06  1.00000000E-06  1.00000000E-06  1.00000000E-06  1.00000000E-06  1.00000000E-06  1.00000000E-06  1.00000000E-06  1.00000000E-06  1.00000000E-06  1.00000000E-06  1.00000000E-06  1.00000000E-06
      1.00000000E-06  1.00000000E-06  1.00000000E-06  1.00000000E-06  1.00000000E-06  1.00000000E-06  1.00000000E-06  1.00000000E-06  1.00000000E-06  1.00000000E-06  1.00000000E-06  1.00000000E-06  1.00000000E-06  1.00000000E-06  1.00000000E-06  1.00000000E-06  1.00000000E-06  1.00000000E-06  1.00000000E-06  1.00000000E-06  1.00000000E-06  1.00000000E-06  1.00000000E-06  1.00000000E-06  1.00000000E-06  1.00000000E-06  1.00000000E-06  1.00000000E-06  1.00000000E-06  1.00000000E-06  1.00000000E-06  1.00000000E-06  1.00000000E-06  1.00000000E-06  1.00000000E-06  1.00000000E-06  1.00000000E-06  1.00000000E-06  1.00000000E-06  1.00000000E-06  1.00000000E-06  1.00000000E-06  1.00000000E-06  1.00000000E-06  1.00000000E-06  1.00000000E-06  1.00000000E-06  1.00000000E-06  1.00000000E-06
      1.00000000E-06  1.00000000E-06  1.00000000E-06  1.00000000E-06  1.00000000E-06  1.00000000E-06  1.00000000E-06  1.00000000E-06  1.00000000E-06  1.00000000E-06  1.00000000E-06  1.00000000E-06  1.00000000E-06  1.00000000E-06  1.00000000E-06  1.00000000E-06  1.00000000E-06  1.00000000E-06  1.00000000E-06  1.00000000E-06  1.00000000E-06  1.00000000E-06  1.00000000E-06  1.00000000E-06  1.00000000E-06  1.00000000E-06  1.00000000E-06  1.00000000E-06  1.00000000E-06  1.00000000E-06  1.00000000E-06  1.00000000E-06  1.00000000E-06  1.00000000E-06  1.00000000E-06  1.00000000E-06  1.00000000E-06  1.00000000E-06  1.00000000E-06  1.00000000E-06  1.00000000E-06  1.00000000E-06  1.00000000E-06  1.00000000E-06  1.00000000E-06  1.00000000E-06  1.00000000E-06  1.00000000E-06  1.00000000E-06
      1.00000000E-06  1.00000000E-06  1.00000000E-06  1.00000000E-06  1.00000000E-06  1.00000000E-06  1.00000000E-06  1.00000000E-06  1.00000000E-06  1.00000000E-06  1.00000000E-06  1.00000000E-06  1.00000000E-06  1.00000000E-06  1.00000000E-06  1.00000000E-06  1.00000000E-06  1.00000000E-06  1.00000000E-06  1.00000000E-06  1.00000000E-06  1.00000000E-06  1.00000000E-06  1.00000000E-06  1.00000000E-06  1.00000000E-06  1.00000000E-06  1.00000000E-06  1.00000000E-06  1.00000000E-06  1.00000000E-06  1.00000000E-06  1.00000000E-06  1.00000000E-06  1.00000000E-06  1.00000000E-06  1.00000000E-06  1.00000000E-06  1.00000000E-06  1.00000000E-06  1.00000000E-06  1.00000000E-06  1.00000000E-06  1.00000000E-06  1.00000000E-06  1.00000000E-06  1.00000000E-06  1.00000000E-06  1.00000000E-06
      1.00000000E-06  1.00000000E-06  1.00000000E-06  1.00000000E-06  1.00000000E-06  1.00000000E-06  1.00000000E-06  1.00000000E-06  1.00000000E-06  1.00000000E-06  1.00000000E-06  1.00000000E-06  1.00000000E-06  1.00000000E-06  1.00000000E-06  1.00000000E-06  1.00000000E-06  1.00000000E-06  1.00000000E-06  1.00000000E-06  1.00000000E-06  1.00000000E-06  1.00000000E-06  1.00000000E-06  1.00000000E-06  1.00000000E-06  1.00000000E-06  1.00000000E-06  1.00000000E-06  1.00000000E-06  1.00000000E-06  1.00000000E-06  1.00000000E-06  1.00000000E-06  1.00000000E-06  1.00000000E-06  1.00000000E-06  1.00000000E-06  1.00000000E-06  1.00000000E-06  1.00000000E-06  1.00000000E-06  1.00000000E-06  1.00000000E-06  1.00000000E-06  1.00000000E-06  1.00000000E-06  1.00000000E-06  1.00000000E-06
      1.00000000E-06  1.00000000E-06  1.00000000E-06  1.00000000E-06  1.00000000E-06  1.00000000E-06  1.00000000E-06  1.00000000E-06  1.00000000E-06  1.00000000E-06  1.00000000E-06  1.00000000E-06  1.00000000E-06  1.00000000E-06  1.00000000E-06  1.00000000E-06  1.00000000E-06  1.00000000E-06  1.00000000E-06  1.00000000E-06  1.00000000E-06  1.00000000E-06  1.00000000E-06  1.00000000E-06  1.00000000E-06  1.00000000E-06  1.00000000E-06  1.00000000E-06  1.00000000E-06  1.00000000E-06  1.00000000E-06  1.00000000E-06  1.00000000E-06  1.00000000E-06  1.00000000E-06  1.00000000E-06  1.00000000E-06  1.00000000E-06  1.00000000E-06  1.00000000E-06  1.00000000E-06  1.00000000E-06  1.00000000E-06  1.00000000E-06  1.00000000E-06  1.00000000E-06  1.00000000E-06  1.00000000E-06  1.00000000E-06
      1.00000000E-06  1.00000000E-06  1.00000000E-06  1.00000000E-06  1.00000000E-06  1.00000000E-06  1.00000000E-06  1.00000000E-06  1.00000000E-06  1.00000000E-06  1.00000000E-06  1.00000000E-06  1.00000000E-06  1.00000000E-06  1.00000000E-06  1.00000000E-06  1.00000000E-06  1.00000000E-06  1.00000000E-06  1.00000000E-06  1.00000000E-06  1.00000000E-06  1.00000000E-06  1.00000000E-06  1.00000000E-06  1.00000000E-06  1.00000000E-06  1.00000000E-06  1.00000000E-06  1.00000000E-06  1.00000000E-06  1.00000000E-06  1.00000000E-06  1.00000000E-06  1.00000000E-06  1.00000000E-06  1.00000000E-06  1.00000000E-06  1.00000000E-06  1.00000000E-06  1.00000000E-06  1.00000000E-06  1.00000000E-06  1.00000000E-06  1.00000000E-06  1.00000000E-06  1.00000000E-06  1.00000000E-06  1.00000000E-06
      1.00000000E-06  1.00000000E-06  1.00000000E-06  1.00000000E-06  1.00000000E-06  1.00000000E-06  1.00000000E-06  1.00000000E-06  1.00000000E-06  1.00000000E-06  1.00000000E-06  1.00000000E-06  1.00000000E-06  1.00000000E-06  1.00000000E-06  1.00000000E-06  1.00000000E-06  1.00000000E-06  1.00000000E-06  1.00000000E-06  1.00000000E-06  1.00000000E-06  1.00000000E-06  1.00000000E-06  1.00000000E-06  1.00000000E-06  1.00000000E-06  1.00000000E-06  1.00000000E-06  1.00000000E-06  1.00000000E-06  1.00000000E-06  1.00000000E-06  1.00000000E-06  1.00000000E-06  1.00000000E-06  1.00000000E-06  1.00000000E-06  1.00000000E-06  1.00000000E-06  1.00000000E-06  1.00000000E-06  1.00000000E-06  1.00000000E-06  1.00000000E-06  1.00000000E-06  1.00000000E-06  1.00000000E-06  1.00000000E-06
      1.00000000E-06  1.00000000E-06  1.00000000E-06  1.00000000E-06  1.00000000E-06  1.00000000E-06  1.00000000E-06  1.00000000E-06  1.00000000E-06  1.00000000E-06  1.00000000E-06  1.00000000E-06  1.00000000E-06  1.00000000E-06  1.00000000E-06  1.00000000E-06  1.00000000E-06  1.00000000E-06  1.00000000E-06  1.00000000E-06  1.00000000E-06  1.00000000E-06  1.00000000E-06  1.00000000E-06  1.00000000E-06  1.00000000E-06  1.00000000E-06  1.00000000E-06  1.00000000E-06  1.00000000E-06  1.00000000E-06  1.00000000E-06  1.00000000E-06  1.00000000E-06  1.00000000E-06  1.00000000E-06  1.00000000E-06  1.00000000E-06  1.00000000E-06  1.00000000E-06  1.00000000E-06  1.00000000E-06  1.00000000E-06  1.00000000E-06  1.00000000E-06  1.00000000E-06  1.00000000E-06  1.00000000E-06  1.00000000E-06
      1.00000000E-06  1.00000000E-06  1.00000000E-06  1.00000000E-06  1.00000000E-06  1.00000000E-06  1.00000000E-06  1.00000000E-06  1.00000000E-06  1.00000000E-06  1.00000000E-06  1.00000000E-06  1.00000000E-06  1.00000000E-06  1.00000000E-06  1.00000000E-06  1.00000000E-06  1.00000000E-06  1.00000000E-06  1.00000000E-06  1.00000000E-06  1.00000000E-06  1.00000000E-06  1.00000000E-06  1.00000000E-06  1.00000000E-06  1.00000000E-06  1.00000000E-06  1.00000000E-06  1.00000000E-06  1.00000000E-06  1.00000000E-06  1.00000000E-06  1.00000000E-06  1.00000000E-06  1.00000000E-06  1.00000000E-06  1.00000000E-06  1.00000000E-06  1.00000000E-06  1.00000000E-06  1.00000000E-06  1.00000000E-06  1.00000000E-06  1.00000000E-06  1.00000000E-06  1.00000000E-06  1.00000000E-06  1.00000000E-06
      1.00000000E-06  1.00000000E-06  1.00000000E-06  1.00000000E-06  1.00000000E-06  1.00000000E-06  1.00000000E-06  1.00000000E-06  1.00000000E-06  1.00000000E-06  1.00000000E-06  1.00000000E-06  1.00000000E-06  1.00000000E-06  1.00000000E-06  1.00000000E-06  1.00000000E-06  1.00000000E-06  1.00000000E-06  1.00000000E-06  1.00000000E-06  1.00000000E-06  1.00000000E-06  1.00000000E-06  1.00000000E-06  1.00000000E-06  1.00000000E-06  1.00000000E-06  1.00000000E-06  1.00000000E-06  1.00000000E-06  1.00000000E-06  1.00000000E-06  1.00000000E-06  1.00000000E-06  1.00000000E-06  1.00000000E-06  1.00000000E-06  1.00000000E-06  1.00000000E-06  1.00000000E-06  1.00000000E-06  1.00000000E-06  1.00000000E-06  1.00000000E-06  1.00000000E-06  1.00000000E-06  1.00000000E-06  1.00000000E-06
      1.00000000E-06  1.00000000E-06  1.00000000E-06  1.00000000E-06  1.00000000E-06  1.00000000E-06  1.00000000E-06  1.00000000E-06  1.00000000E-06  1.00000000E-06  1.00000000E-06  1.00000000E-06  1.00000000E-06  1.00000000E-06  1.00000000E-06  1.00000000E-06  1.00000000E-06  1.00000000E-06  1.00000000E-06  1.00000000E-06  1.00000000E-06  1.00000000E-06  1.00000000E-06  1.00000000E-06  1.00000000E-06  1.00000000E-06  1.00000000E-06  1.00000000E-06  1.00000000E-06  1.00000000E-06  1.00000000E-06  1.00000000E-06  1.00000000E-06  1.00000000E-06  1.00000000E-06  1.00000000E-06  1.00000000E-06  1.00000000E-06  1.00000000E-06  1.00000000E-06  1.00000000E-06  1.00000000E-06  1.00000000E-06  1.00000000E-06  1.00000000E-06  1.00000000E-06  1.00000000E-06  1.00000000E-06  1.00000000E-06
      1.00000000E-06  1.00000000E-06  1.00000000E-06  1.00000000E-06  1.00000000E-06  1.00000000E-06  1.00000000E-06  1.00000000E-06  1.00000000E-06  1.00000000E-06  1.00000000E-06  1.00000000E-06  1.00000000E-06  1.00000000E-06  1.00000000E-06  1.00000000E-06  1.00000000E-06  1.00000000E-06  1.00000000E-06  1.00000000E-06  1.00000000E-06  1.00000000E-06  1.00000000E-06  1.00000000E-06  1.00000000E-06  1.00000000E-06  1.00000000E-06  1.00000000E-06  1.00000000E-06  1.00000000E-06  1.00000000E-06  1.00000000E-06  1.00000000E-06  1.00000000E-06  1.00000000E-06  1.00000000E-06  1.00000000E-06  1.00000000E-06  1.00000000E-06  1.00000000E-06  1.00000000E-06  1.00000000E-06  1.00000000E-06  1.00000000E-06  1.00000000E-06  1.00000000E-06  1.00000000E-06  1.00000000E-06  1.00000000E-06
      1.00000000E-06  1.00000000E-06  1.00000000E-06  1.00000000E-06  1.00000000E-06  1.00000000E-06  1.00000000E-06  1.00000000E-06  1.00000000E-06  1.00000000E-06  1.00000000E-06  1.00000000E-06  1.00000000E-06  1.00000000E-06  1.00000000E-06  1.00000000E-06  1.00000000E-06  1.00000000E-06  1.00000000E-06  1.00000000E-06  1.00000000E-06  1.00000000E-06  1.00000000E-06  1.00000000E-06  1.00000000E-06  1.00000000E-06  1.00000000E-06  1.00000000E-06  1.00000000E-06  1.00000000E-06  1.00000000E-06  1.00000000E-06  1.00000000E-06  1.00000000E-06  1.00000000E-06  1.00000000E-06  1.00000000E-06  1.00000000E-06  1.00000000E-06  1.00000000E-06  1.00000000E-06  1.00000000E-06  1.00000000E-06  1.00000000E-06  1.00000000E-06  1.00000000E-06  1.00000000E-06  1.00000000E-06  1.00000000E-06
      1.00000000E-06  1.00000000E-06  1.00000000E-06  1.00000000E-06  1.00000000E-06  1.00000000E-06  1.00000000E-06  1.00000000E-06  1.00000000E-06  1.00000000E-06  1.00000000E-06  1.00000000E-06  1.00000000E-06  1.00000000E-06  1.00000000E-06  1.00000000E-06  1.00000000E-06  1.00000000E-06  1.00000000E-06  1.00000000E-06  1.00000000E-06  1.00000000E-06  1.00000000E-06  1.00000000E-06  1.00000000E-06  1.00000000E-06  1.00000000E-06  1.00000000E-06  1.00000000E-06  1.00000000E-06  1.00000000E-06  1.00000000E-06  1.00000000E-06  1.00000000E-06  1.00000000E-06  1.00000000E-06  1.00000000E-06  1.00000000E-06  1.00000000E-06  1.00000000E-06  1.00000000E-06  1.00000000E-06  1.00000000E-06  1.00000000E-06  1.00000000E-06  1.00000000E-06  1.00000000E-06  1.00000000E-06  1.00000000E-06
      1.00000000E-06  1.00000000E-06  1.00000000E-06  1.00000000E-06  1.00000000E-06  1.00000000E-06  1.00000000E-06  1.00000000E-06  1.00000000E-06  1.00000000E-06  1.00000000E-06  1.00000000E-06  1.00000000E-06  1.00000000E-06  1.00000000E-06  1.00000000E-06  1.00000000E-06  1.00000000E-06  1.00000000E-06  1.00000000E-06  1.00000000E-06  1.00000000E-06  1.00000000E-06  1.00000000E-06  1.00000000E-06  1.00000000E-06  1.00000000E-06  1.00000000E-06  1.00000000E-06  1.00000000E-06  1.00000000E-06  1.00000000E-06  1.00000000E-06  1.00000000E-06  1.00000000E-06  1.00000000E-06  1.00000000E-06  1.00000000E-06  1.00000000E-06  1.00000000E-06  1.00000000E-06  1.00000000E-06  1.00000000E-06  1.00000000E-06  1.00000000E-06  1.00000000E-06  1.00000000E-06  1.00000000E-06  1.00000000E-06
      1.00000000E-06  1.00000000E-06  1.00000000E-06  1.00000000E-06  1.00000000E-06  1.00000000E-06  1.00000000E-06  1.00000000E-06  1.00000000E-06  1.00000000E-06  1.00000000E-06  1.00000000E-06  1.00000000E-06  1.00000000E-06  1.00000000E-06  1.00000000E-06  1.00000000E-06  1.00000000E-06  1.00000000E-06  1.00000000E-06  1.00000000E-06  1.00000000E-06  1.00000000E-06  1.00000000E-06  1.00000000E-06  1.00000000E-06  1.00000000E-06  1.00000000E-06  1.00000000E-06  1.00000000E-06  1.00000000E-06  1.00000000E-06  1.00000000E-06  1.00000000E-06  1.00000000E-06  1.00000000E-06  1.00000000E-06  1.00000000E-06  1.00000000E-06  1.00000000E-06  1.00000000E-06  1.00000000E-06  1.00000000E-06  1.00000000E-06  1.00000000E-06  1.00000000E-06  1.00000000E-06  1.00000000E-06  1.00000000E-06
      1.00000000E-06  1.00000000E-06  1.00000000E-06  1.00000000E-06  1.00000000E-06  1.00000000E-06  1.00000000E-06  1.00000000E-06  1.00000000E-06  1.00000000E-06  1.00000000E-06  1.00000000E-06  1.00000000E-06  1.00000000E-06  1.00000000E-06  1.00000000E-06  1.00000000E-06  1.00000000E-06  1.00000000E-06  1.00000000E-06  1.00000000E-06  1.00000000E-06  1.00000000E-06  1.00000000E-06  1.00000000E-06  1.00000000E-06  1.00000000E-06  1.00000000E-06  1.00000000E-06  1.00000000E-06  1.00000000E-06  1.00000000E-06  1.00000000E-06  1.00000000E-06  1.00000000E-06  1.00000000E-06  1.00000000E-06  1.00000000E-06  1.00000000E-06  1.00000000E-06  1.00000000E-06  1.00000000E-06  1.00000000E-06  1.00000000E-06  1.00000000E-06  1.00000000E-06  1.00000000E-06  1.00000000E-06  1.00000000E-06
      1.00000000E-06  1.00000000E-06  1.00000000E-06  1.00000000E-06  1.00000000E-06  1.00000000E-06  1.00000000E-06  1.00000000E-06  1.00000000E-06  1.00000000E-06  1.00000000E-06  1.00000000E-06  1.00000000E-06  1.00000000E-06  1.00000000E-06  1.00000000E-06  1.00000000E-06  1.00000000E-06  1.00000000E-06  1.00000000E-06  1.00000000E-06  1.00000000E-06  1.00000000E-06  1.00000000E-06  1.00000000E-06  1.00000000E-06  1.00000000E-06  1.00000000E-06  1.00000000E-06  1.00000000E-06  1.00000000E-06  1.00000000E-06  1.00000000E-06  1.00000000E-06  1.00000000E-06  1.00000000E-06  1.00000000E-06  1.00000000E-06  1.00000000E-06  1.00000000E-06  1.00000000E-06  1.00000000E-06  1.00000000E-06  1.00000000E-06  1.00000000E-06  1.00000000E-06  1.00000000E-06  1.00000000E-06  1.00000000E-06
      1.00000000E-06  1.00000000E-06  1.00000000E-06  1.00000000E-06  1.00000000E-06  1.00000000E-06  1.00000000E-06  1.00000000E-06  1.00000000E-06  1.00000000E-06  1.00000000E-06  1.00000000E-06  1.00000000E-06  1.00000000E-06  1.00000000E-06  1.00000000E-06  1.00000000E-06  1.00000000E-06  1.00000000E-06  1.00000000E-06  1.00000000E-06  1.00000000E-06  1.00000000E-06  1.00000000E-06  1.00000000E-06  1.00000000E-06  1.00000000E-06  1.00000000E-06  1.00000000E-06  1.00000000E-06  1.00000000E-06  1.00000000E-06  1.00000000E-06  1.00000000E-06  1.00000000E-06  1.00000000E-06  1.00000000E-06  1.00000000E-06  1.00000000E-06  1.00000000E-06  1.00000000E-06  1.00000000E-06  1.00000000E-06  1.00000000E-06  1.00000000E-06  1.00000000E-06  1.00000000E-06  1.00000000E-06  1.00000000E-06
      1.00000000E-06  1.00000000E-06  1.00000000E-06  1.00000000E-06  1.00000000E-06  1.00000000E-06  1.00000000E-06  1.00000000E-06  1.00000000E-06  1.00000000E-06  1.00000000E-06  1.00000000E-06  1.00000000E-06  1.00000000E-06  1.00000000E-06  1.00000000E-06  1.00000000E-06  1.00000000E-06  1.00000000E-06  1.00000000E-06  1.00000000E-06  1.00000000E-06  1.00000000E-06  1.00000000E-06  1.00000000E-06  1.00000000E-06  1.00000000E-06  1.00000000E-06  1.00000000E-06  1.00000000E-06  1.00000000E-06  1.00000000E-06  1.00000000E-06  1.00000000E-06  1.00000000E-06  1.00000000E-06  1.00000000E-06  1.00000000E-06  1.00000000E-06  1.00000000E-06  1.00000000E-06  1.00000000E-06  1.00000000E-06  1.00000000E-06  1.00000000E-06  1.00000000E-06  1.00000000E-06  1.00000000E-06  1.00000000E-06
      1.00000000E-06  1.00000000E-06  1.00000000E-06  1.00000000E-06  1.00000000E-06  1.00000000E-06  1.00000000E-06  1.00000000E-06  1.00000000E-06  1.00000000E-06  1.00000000E-06  1.00000000E-06  1.00000000E-06  1.00000000E-06  1.00000000E-06  1.00000000E-06  1.00000000E-06  1.00000000E-06  1.00000000E-06  1.00000000E-06  1.00000000E-06  1.00000000E-06  1.00000000E-06  1.00000000E-06  1.00000000E-06  1.00000000E-06  1.00000000E-06  1.00000000E-06  1.00000000E-06  1.00000000E-06  1.00000000E-06  1.00000000E-06  1.00000000E-06  1.00000000E-06  1.00000000E-06  1.00000000E-06  1.00000000E-06  1.00000000E-06  1.00000000E-06  1.00000000E-06  1.00000000E-06  1.00000000E-06  1.00000000E-06  1.00000000E-06  1.00000000E-06  1.00000000E-06  1.00000000E-06  1.00000000E-06  1.00000000E-06
      1.00000000E-06  1.00000000E-06  1.00000000E-06  1.00000000E-06  1.00000000E-06  1.00000000E-06  1.00000000E-06  1.00000000E-06  1.00000000E-06  1.00000000E-06  1.00000000E-06  1.00000000E-06  1.00000000E-06  1.00000000E-06  1.00000000E-06  1.00000000E-06  1.00000000E-06  1.00000000E-06  1.00000000E-06  1.00000000E-06  1.00000000E-06  1.00000000E-06  1.00000000E-06  1.00000000E-06  1.00000000E-06  1.00000000E-06  1.00000000E-06  1.00000000E-06  1.00000000E-06  1.00000000E-06  1.00000000E-06  1.00000000E-06  1.00000000E-06  1.00000000E-06  1.00000000E-06  1.00000000E-06  1.00000000E-06  1.00000000E-06  1.00000000E-06  1.00000000E-06  1.00000000E-06  1.00000000E-06  1.00000000E-06  1.00000000E-06  1.00000000E-06  1.00000000E-06  1.00000000E-06  1.00000000E-06  1.00000000E-06
      1.00000000E-06  1.00000000E-06  1.00000000E-06  1.00000000E-06  1.00000000E-06  1.00000000E-06  1.00000000E-06  1.00000000E-06  1.00000000E-06  1.00000000E-06  1.00000000E-06  1.00000000E-06  1.00000000E-06  1.00000000E-06  1.00000000E-06  1.00000000E-06  1.00000000E-06  1.00000000E-06  1.00000000E-06  1.00000000E-06  1.00000000E-06  1.00000000E-06  1.00000000E-06  1.00000000E-06  1.00000000E-06  1.00000000E-06  1.00000000E-06  1.00000000E-06  1.00000000E-06  1.00000000E-06  1.00000000E-06  1.00000000E-06  1.00000000E-06  1.00000000E-06  1.00000000E-06  1.00000000E-06  1.00000000E-06  1.00000000E-06  1.00000000E-06  1.00000000E-06  1.00000000E-06  1.00000000E-06  1.00000000E-06  1.00000000E-06  1.00000000E-06  1.00000000E-06  1.00000000E-06  1.00000000E-06  1.00000000E-06
      1.00000000E-06  1.00000000E-06  1.00000000E-06  1.00000000E-06  1.00000000E-06  1.00000000E-06  1.00000000E-06  1.00000000E-06  1.00000000E-06  1.00000000E-06  1.00000000E-06  1.00000000E-06  1.00000000E-06  1.00000000E-06  1.00000000E-06  1.00000000E-06  1.00000000E-06  1.00000000E-06  1.00000000E-06  1.00000000E-06  1.00000000E-06  1.00000000E-06  1.00000000E-06  1.00000000E-06  1.00000000E-06  1.00000000E-06  1.00000000E-06  1.00000000E-06  1.00000000E-06  1.00000000E-06  1.00000000E-06  1.00000000E-06  1.00000000E-06  1.00000000E-06  1.00000000E-06  1.00000000E-06  1.00000000E-06  1.00000000E-06  1.00000000E-06  1.00000000E-06  1.00000000E-06  1.00000000E-06  1.00000000E-06  1.00000000E-06  1.00000000E-06  1.00000000E-06  1.00000000E-06  1.00000000E-06  1.00000000E-06
      1.00000000E-06  1.00000000E-06  1.00000000E-06  1.00000000E-06  1.00000000E-06  1.00000000E-06  1.00000000E-06  1.00000000E-06  1.00000000E-06  1.00000000E-06  1.00000000E-06  1.00000000E-06  1.00000000E-06  1.00000000E-06  1.00000000E-06  1.00000000E-06  1.00000000E-06  1.00000000E-06  1.00000000E-06  1.00000000E-06  1.00000000E-06  1.00000000E-06  1.00000000E-06  1.00000000E-06  1.00000000E-06  1.00000000E-06  1.00000000E-06  1.00000000E-06  1.00000000E-06  1.00000000E-06  1.00000000E-06  1.00000000E-06  1.00000000E-06  1.00000000E-06  1.00000000E-06  1.00000000E-06  1.00000000E-06  1.00000000E-06  1.00000000E-06  1.00000000E-06  1.00000000E-06  1.00000000E-06  1.00000000E-06  1.00000000E-06  1.00000000E-06  1.00000000E-06  1.00000000E-06  1.00000000E-06  1.00000000E-06
      1.00000000E-06  1.00000000E-06  1.00000000E-06  1.00000000E-06  1.00000000E-06  1.00000000E-06  1.00000000E-06  1.00000000E-06  1.00000000E-06  1.00000000E-06  1.00000000E-06  1.00000000E-06  1.00000000E-06  1.00000000E-06  1.00000000E-06  1.00000000E-06  1.00000000E-06  1.00000000E-06  1.00000000E-06  1.00000000E-06  1.00000000E-06  1.00000000E-06  1.00000000E-06  1.00000000E-06  1.00000000E-06  1.00000000E-06  1.00000000E-06  1.00000000E-06  1.00000000E-06  1.00000000E-06  1.00000000E-06  1.00000000E-06  1.00000000E-06  1.00000000E-06  1.00000000E-06  1.00000000E-06  1.00000000E-06  1.00000000E-06  1.00000000E-06  1.00000000E-06  1.00000000E-06  1.00000000E-06  1.00000000E-06  1.00000000E-06  1.00000000E-06  1.00000000E-06  1.00000000E-06  1.00000000E-06  1.00000000E-06
      1.00000000E-06  1.00000000E-06  1.00000000E-06  1.00000000E-06  1.00000000E-06  1.00000000E-06  1.00000000E-06  1.00000000E-06  1.00000000E-06  1.00000000E-06  1.00000000E-06  1.00000000E-06  1.00000000E-06  1.00000000E-06  1.00000000E-06  1.00000000E-06  1.00000000E-06  1.00000000E-06  1.00000000E-06  1.00000000E-06  1.00000000E-06  1.00000000E-06  1.00000000E-06  1.00000000E-06  1.00000000E-06  1.00000000E-06  1.00000000E-06  1.00000000E-06  1.00000000E-06  1.00000000E-06  1.00000000E-06  1.00000000E-06  1.00000000E-06  1.00000000E-06  1.00000000E-06  1.00000000E-06  1.00000000E-06  1.00000000E-06  1.00000000E-06  1.00000000E-06  1.00000000E-06  1.00000000E-06  1.00000000E-06  1.00000000E-06  1.00000000E-06  1.00000000E-06  1.00000000E-06  1.00000000E-06  1.00000000E-06