# File generated by Flopy version 3.3.5 on 03/04/2022 at 11:14:38.
BEGIN options
  LENGTH_UNITS  feet
END options

BEGIN dimensions
  NLAY  41
  NROW  16
  NCOL  27
END dimensions

BEGIN griddata
  delr
    INTERNAL  FACTOR  1.0
        10.00000000      10.00000000       9.00200000       6.00000000       4.00000000       3.00000000       2.00000000       1.33000000       1.25000000       1.00000000       1.00000000       0.75000000       0.50000000       0.33300000       0.50000000       0.75000000       1.00000000       1.00000000       1.25000000       1.33300000       2.00000000       3.00000000       4.00000000       6.00000000       9.00200000      10.00000000      10.00000000
  delc
    INTERNAL  FACTOR  1.0
        10.00000000       9.38000000       9.00000000       6.00000000       4.00000000       3.00000000       2.00000000       1.33000000       1.25000000       1.00000000       1.00000000       0.75000000       0.50000000       0.37350000       0.25000000       0.16650000
  top
    CONSTANT      10.00000000
  botm  LAYERED
    CONSTANT      -5.00000000
    CONSTANT     -10.00000000
    CONSTANT     -15.00000000
    CONSTANT     -20.00000000
    CONSTANT     -25.00000000
    CONSTANT     -30.00000000
    CONSTANT     -35.00000000
    CONSTANT     -40.00000000
    CONSTANT     -45.00000000
    CONSTANT     -50.00000000
    CONSTANT     -55.00000000
    CONSTANT     -60.00000000
    CONSTANT     -65.00000000
    CONSTANT     -70.00000000
    CONSTANT     -75.00000000
    CONSTANT     -80.00000000
    CONSTANT     -85.00000000
    CONSTANT     -90.00000000
    CONSTANT     -95.00000000
    CONSTANT    -100.00000000
    CONSTANT    -105.00000000
    CONSTANT    -110.00000000
    CONSTANT    -115.00000000
    CONSTANT    -120.00000000
    CONSTANT    -125.00000000
    CONSTANT    -130.00000000
    CONSTANT    -135.00000000
    CONSTANT    -140.00000000
    CONSTANT    -145.00000000
    CONSTANT    -150.00000000
    CONSTANT    -155.00000000
    CONSTANT    -160.00000000
    CONSTANT    -165.00000000
    CONSTANT    -170.00000000
    CONSTANT    -175.00000000
    CONSTANT    -180.00000000
    CONSTANT    -185.00000000
    CONSTANT    -190.00000000
    CONSTANT    -195.00000000
    CONSTANT    -200.00000000
    CONSTANT    -205.00000000
  idomain
    CONSTANT  1
END griddata

