# File generated by Flopy version 3.3.5 on 03/04/2022 at 11:14:38.
BEGIN options
END options

BEGIN continuous  FILEOUT  ex-gwf-maw-p03.gwf.obs.csv
  H0_1  HEAD  2 16 14
  H0_2  HEAD  3 16 14
  H0_3  HEAD  4 16 14
  H0_4  HEAD  5 16 14
  H0_5  HEAD  6 16 14
  H0_6  HEAD  7 16 14
  H0_7  HEAD  8 16 14
  H0_8  HEAD  9 16 14
  H0_9  HEAD  10 16 14
  H0_10  HEAD  11 16 14
  H0_11  HEAD  12 16 14
  H0_12  HEAD  13 16 14
  Q00  flow-ja-face  2 16 14  1 16 14
  Q01  flow-ja-face  2 16 14  2 16 13
  Q02  flow-ja-face  2 16 14  2 15 14
  Q03  flow-ja-face  2 16 14  2 16 15
  Q04  flow-ja-face  3 16 14  3 16 13
  Q05  flow-ja-face  3 16 14  3 15 14
  Q06  flow-ja-face  3 16 14  3 16 15
  Q07  flow-ja-face  4 16 14  4 16 13
  Q08  flow-ja-face  4 16 14  4 15 14
  Q09  flow-ja-face  4 16 14  4 16 15
  Q10  flow-ja-face  5 16 14  5 16 13
  Q11  flow-ja-face  5 16 14  5 15 14
  Q12  flow-ja-face  5 16 14  5 16 15
  Q13  flow-ja-face  6 16 14  6 16 13
  Q14  flow-ja-face  6 16 14  6 15 14
  Q15  flow-ja-face  6 16 14  6 16 15
  Q16  flow-ja-face  7 16 14  7 16 13
  Q17  flow-ja-face  7 16 14  7 15 14
  Q18  flow-ja-face  7 16 14  7 16 15
  Q19  flow-ja-face  8 16 14  8 16 13
  Q20  flow-ja-face  8 16 14  8 15 14
  Q21  flow-ja-face  8 16 14  8 16 15
  Q22  flow-ja-face  9 16 14  9 16 13
  Q23  flow-ja-face  9 16 14  9 15 14
  Q24  flow-ja-face  9 16 14  9 16 15
  Q25  flow-ja-face  10 16 14  10 16 13
  Q26  flow-ja-face  10 16 14  10 15 14
  Q27  flow-ja-face  10 16 14  10 16 15
  Q28  flow-ja-face  11 16 14  11 16 13
  Q29  flow-ja-face  11 16 14  11 15 14
  Q30  flow-ja-face  11 16 14  11 16 15
  Q31  flow-ja-face  12 16 14  12 16 13
  Q32  flow-ja-face  12 16 14  12 15 14
  Q33  flow-ja-face  12 16 14  12 16 15
  Q34  flow-ja-face  13 16 14  13 16 13
  Q35  flow-ja-face  13 16 14  13 15 14
  Q36  flow-ja-face  13 16 14  13 16 15
  Q37  flow-ja-face  13 16 14  14 16 14
END continuous  FILEOUT  ex-gwf-maw-p03.gwf.obs.csv

