# File generated by Flopy version 3.3.5 on 03/04/2022 at 11:17:42.
BEGIN options
END options

BEGIN dimensions
  MAXBOUND  100
END dimensions

BEGIN period  1
  1 1 1       0.03141076
  1 1 2       0.09410831
  1 1 3       0.15643447
  1 1 4       0.21814324
  1 1 5       0.27899111
  1 1 6       0.33873792
  1 1 7       0.39714789
  1 1 8       0.45399050
  1 1 9       0.50904142
  1 1 10       0.56208338
  1 1 11       0.61290705
  1 1 12       0.66131187
  1 1 13       0.70710678
  1 1 14       0.75011107
  1 1 15       0.79015501
  1 1 16       0.82708057
  1 1 17       0.86074203
  1 1 18       0.89100652
  1 1 19       0.91775463
  1 1 20       0.94088077
  1 1 21       0.96029369
  1 1 22       0.97591676
  1 1 23       0.98768834
  1 1 24       0.99556196
  1 1 25       0.99950656
  1 1 26       0.99950656
  1 1 27       0.99556196
  1 1 28       0.98768834
  1 1 29       0.97591676
  1 1 30       0.96029369
  1 1 31       0.94088077
  1 1 32       0.91775463
  1 1 33       0.89100652
  1 1 34       0.86074203
  1 1 35       0.82708057
  1 1 36       0.79015501
  1 1 37       0.75011107
  1 1 38       0.70710678
  1 1 39       0.66131187
  1 1 40       0.61290705
  1 1 41       0.56208338
  1 1 42       0.50904142
  1 1 43       0.45399050
  1 1 44       0.39714789
  1 1 45       0.33873792
  1 1 46       0.27899111
  1 1 47       0.21814324
  1 1 48       0.15643447
  1 1 49       0.09410831
  1 1 50       0.03141076
  1 1 51      -0.03141076
  1 1 52      -0.09410831
  1 1 53      -0.15643447
  1 1 54      -0.21814324
  1 1 55      -0.27899111
  1 1 56      -0.33873792
  1 1 57      -0.39714789
  1 1 58      -0.45399050
  1 1 59      -0.50904142
  1 1 60      -0.56208338
  1 1 61      -0.61290705
  1 1 62      -0.66131187
  1 1 63      -0.70710678
  1 1 64      -0.75011107
  1 1 65      -0.79015501
  1 1 66      -0.82708057
  1 1 67      -0.86074203
  1 1 68      -0.89100652
  1 1 69      -0.91775463
  1 1 70      -0.94088077
  1 1 71      -0.96029369
  1 1 72      -0.97591676
  1 1 73      -0.98768834
  1 1 74      -0.99556196
  1 1 75      -0.99950656
  1 1 76      -0.99950656
  1 1 77      -0.99556196
  1 1 78      -0.98768834
  1 1 79      -0.97591676
  1 1 80      -0.96029369
  1 1 81      -0.94088077
  1 1 82      -0.91775463
  1 1 83      -0.89100652
  1 1 84      -0.86074203
  1 1 85      -0.82708057
  1 1 86      -0.79015501
  1 1 87      -0.75011107
  1 1 88      -0.70710678
  1 1 89      -0.66131187
  1 1 90      -0.61290705
  1 1 91      -0.56208338
  1 1 92      -0.50904142
  1 1 93      -0.45399050
  1 1 94      -0.39714789
  1 1 95      -0.33873792
  1 1 96      -0.27899111
  1 1 97      -0.21814324
  1 1 98      -0.15643447
  1 1 99      -0.09410831
  1 1 100      -0.03141076
END period  1

