# File generated by Flopy version 3.3.5 on 03/04/2022 at 11:17:42.
BEGIN options
  SAVE_FLOWS
END options

BEGIN packages
  DIS6  .\ex-gwf-spbc.dis  dis
  NPF6  .\ex-gwf-spbc.npf  npf
  IC6  .\ex-gwf-spbc.ic  ic
  CHD6  .\ex-gwf-spbc.chd  chd
  OC6  .\ex-gwf-spbc.oc  oc
END packages

