# File generated by Flopy version 3.3.5 on 03/04/2022 at 11:17:42.
BEGIN options
  LENGTH_UNITS  meters
END options

BEGIN dimensions
  NLAY  190
  NROW  1
  NCOL  100
END dimensions

BEGIN griddata
  delr
    CONSTANT       0.06000000
  delc
    CONSTANT       1.00000000
  top
    CONSTANT       0.00000000
  botm  LAYERED
    CONSTANT      -0.03000000
    CONSTANT      -0.06000000
    CONSTANT      -0.09000000
    CONSTANT      -0.12000000
    CONSTANT      -0.15000000
    CONSTANT      -0.18000000
    CONSTANT      -0.21000000
    CONSTANT      -0.24000000
    CONSTANT      -0.27000000
    CONSTANT      -0.30000000
    CONSTANT      -0.33000000
    CONSTANT      -0.36000000
    CONSTANT      -0.39000000
    CONSTANT      -0.42000000
    CONSTANT      -0.45000000
    CONSTANT      -0.48000000
    CONSTANT      -0.51000000
    CONSTANT      -0.54000000
    CONSTANT      -0.57000000
    CONSTANT      -0.60000000
    CONSTANT      -0.63000000
    CONSTANT      -0.66000000
    CONSTANT      -0.69000000
    CONSTANT      -0.72000000
    CONSTANT      -0.75000000
    CONSTANT      -0.78000000
    CONSTANT      -0.81000000
    CONSTANT      -0.84000000
    CONSTANT      -0.87000000
    CONSTANT      -0.90000000
    CONSTANT      -0.93000000
    CONSTANT      -0.96000000
    CONSTANT      -0.99000000
    CONSTANT      -1.02000000
    CONSTANT      -1.05000000
    CONSTANT      -1.08000000
    CONSTANT      -1.11000000
    CONSTANT      -1.14000000
    CONSTANT      -1.17000000
    CONSTANT      -1.20000000
    CONSTANT      -1.23000000
    CONSTANT      -1.26000000
    CONSTANT      -1.29000000
    CONSTANT      -1.32000000
    CONSTANT      -1.35000000
    CONSTANT      -1.38000000
    CONSTANT      -1.41000000
    CONSTANT      -1.44000000
    CONSTANT      -1.47000000
    CONSTANT      -1.50000000
    CONSTANT      -1.53000000
    CONSTANT      -1.56000000
    CONSTANT      -1.59000000
    CONSTANT      -1.62000000
    CONSTANT      -1.65000000
    CONSTANT      -1.68000000
    CONSTANT      -1.71000000
    CONSTANT      -1.74000000
    CONSTANT      -1.77000000
    CONSTANT      -1.80000000
    CONSTANT      -1.83000000
    CONSTANT      -1.86000000
    CONSTANT      -1.89000000
    CONSTANT      -1.92000000
    CONSTANT      -1.95000000
    CONSTANT      -1.98000000
    CONSTANT      -2.01000000
    CONSTANT      -2.04000000
    CONSTANT      -2.07000000
    CONSTANT      -2.10000000
    CONSTANT      -2.13000000
    CONSTANT      -2.16000000
    CONSTANT      -2.19000000
    CONSTANT      -2.22000000
    CONSTANT      -2.25000000
    CONSTANT      -2.28000000
    CONSTANT      -2.31000000
    CONSTANT      -2.34000000
    CONSTANT      -2.37000000
    CONSTANT      -2.40000000
    CONSTANT      -2.43000000
    CONSTANT      -2.46000000
    CONSTANT      -2.49000000
    CONSTANT      -2.52000000
    CONSTANT      -2.55000000
    CONSTANT      -2.58000000
    CONSTANT      -2.61000000
    CONSTANT      -2.64000000
    CONSTANT      -2.67000000
    CONSTANT      -2.70000000
    CONSTANT      -2.73000000
    CONSTANT      -2.76000000
    CONSTANT      -2.79000000
    CONSTANT      -2.82000000
    CONSTANT      -2.85000000
    CONSTANT      -2.88000000
    CONSTANT      -2.91000000
    CONSTANT      -2.94000000
    CONSTANT      -2.97000000
    CONSTANT      -3.00000000
    CONSTANT      -3.03000000
    CONSTANT      -3.06000000
    CONSTANT      -3.09000000
    CONSTANT      -3.12000000
    CONSTANT      -3.15000000
    CONSTANT      -3.18000000
    CONSTANT      -3.21000000
    CONSTANT      -3.24000000
    CONSTANT      -3.27000000
    CONSTANT      -3.30000000
    CONSTANT      -3.33000000
    CONSTANT      -3.36000000
    CONSTANT      -3.39000000
    CONSTANT      -3.42000000
    CONSTANT      -3.45000000
    CONSTANT      -3.48000000
    CONSTANT      -3.51000000
    CONSTANT      -3.54000000
    CONSTANT      -3.57000000
    CONSTANT      -3.60000000
    CONSTANT      -3.63000000
    CONSTANT      -3.66000000
    CONSTANT      -3.69000000
    CONSTANT      -3.72000000
    CONSTANT      -3.75000000
    CONSTANT      -3.78000000
    CONSTANT      -3.81000000
    CONSTANT      -3.84000000
    CONSTANT      -3.87000000
    CONSTANT      -3.90000000
    CONSTANT      -3.93000000
    CONSTANT      -3.96000000
    CONSTANT      -3.99000000
    CONSTANT      -4.02000000
    CONSTANT      -4.05000000
    CONSTANT      -4.08000000
    CONSTANT      -4.11000000
    CONSTANT      -4.14000000
    CONSTANT      -4.17000000
    CONSTANT      -4.20000000
    CONSTANT      -4.23000000
    CONSTANT      -4.26000000
    CONSTANT      -4.29000000
    CONSTANT      -4.32000000
    CONSTANT      -4.35000000
    CONSTANT      -4.38000000
    CONSTANT      -4.41000000
    CONSTANT      -4.44000000
    CONSTANT      -4.47000000
    CONSTANT      -4.50000000
    CONSTANT      -4.53000000
    CONSTANT      -4.56000000
    CONSTANT      -4.59000000
    CONSTANT      -4.62000000
    CONSTANT      -4.65000000
    CONSTANT      -4.68000000
    CONSTANT      -4.71000000
    CONSTANT      -4.74000000
    CONSTANT      -4.77000000
    CONSTANT      -4.80000000
    CONSTANT      -4.83000000
    CONSTANT      -4.86000000
    CONSTANT      -4.89000000
    CONSTANT      -4.92000000
    CONSTANT      -4.95000000
    CONSTANT      -4.98000000
    CONSTANT      -5.01000000
    CONSTANT      -5.04000000
    CONSTANT      -5.07000000
    CONSTANT      -5.10000000
    CONSTANT      -5.13000000
    CONSTANT      -5.16000000
    CONSTANT      -5.19000000
    CONSTANT      -5.22000000
    CONSTANT      -5.25000000
    CONSTANT      -5.28000000
    CONSTANT      -5.31000000
    CONSTANT      -5.34000000
    CONSTANT      -5.37000000
    CONSTANT      -5.40000000
    CONSTANT      -5.43000000
    CONSTANT      -5.46000000
    CONSTANT      -5.49000000
    CONSTANT      -5.52000000
    CONSTANT      -5.55000000
    CONSTANT      -5.58000000
    CONSTANT      -5.61000000
    CONSTANT      -5.64000000
    CONSTANT      -5.67000000
    CONSTANT      -5.70000000
END griddata

