# File generated by Flopy version 3.3.5 on 03/04/2022 at 11:17:42.
BEGIN options
  auxiliary  ANGLDEGX  CDIST
END options

BEGIN dimensions
  NEXG  190
END dimensions

BEGIN exchangedata
  1 1 1  1 1 100  1       0.03000000       0.03000000       1.00000000      90.00000000       0.06000000
  2 1 1  2 1 100  1       0.03000000       0.03000000       1.00000000      90.00000000       0.06000000
  3 1 1  3 1 100  1       0.03000000       0.03000000       1.00000000      90.00000000       0.06000000
  4 1 1  4 1 100  1       0.03000000       0.03000000       1.00000000      90.00000000       0.06000000
  5 1 1  5 1 100  1       0.03000000       0.03000000       1.00000000      90.00000000       0.06000000
  6 1 1  6 1 100  1       0.03000000       0.03000000       1.00000000      90.00000000       0.06000000
  7 1 1  7 1 100  1       0.03000000       0.03000000       1.00000000      90.00000000       0.06000000
  8 1 1  8 1 100  1       0.03000000       0.03000000       1.00000000      90.00000000       0.06000000
  9 1 1  9 1 100  1       0.03000000       0.03000000       1.00000000      90.00000000       0.06000000
  10 1 1  10 1 100  1       0.03000000       0.03000000       1.00000000      90.00000000       0.06000000
  11 1 1  11 1 100  1       0.03000000       0.03000000       1.00000000      90.00000000       0.06000000
  12 1 1  12 1 100  1       0.03000000       0.03000000       1.00000000      90.00000000       0.06000000
  13 1 1  13 1 100  1       0.03000000       0.03000000       1.00000000      90.00000000       0.06000000
  14 1 1  14 1 100  1       0.03000000       0.03000000       1.00000000      90.00000000       0.06000000
  15 1 1  15 1 100  1       0.03000000       0.03000000       1.00000000      90.00000000       0.06000000
  16 1 1  16 1 100  1       0.03000000       0.03000000       1.00000000      90.00000000       0.06000000
  17 1 1  17 1 100  1       0.03000000       0.03000000       1.00000000      90.00000000       0.06000000
  18 1 1  18 1 100  1       0.03000000       0.03000000       1.00000000      90.00000000       0.06000000
  19 1 1  19 1 100  1       0.03000000       0.03000000       1.00000000      90.00000000       0.06000000
  20 1 1  20 1 100  1       0.03000000       0.03000000       1.00000000      90.00000000       0.06000000
  21 1 1  21 1 100  1       0.03000000       0.03000000       1.00000000      90.00000000       0.06000000
  22 1 1  22 1 100  1       0.03000000       0.03000000       1.00000000      90.00000000       0.06000000
  23 1 1  23 1 100  1       0.03000000       0.03000000       1.00000000      90.00000000       0.06000000
  24 1 1  24 1 100  1       0.03000000       0.03000000       1.00000000      90.00000000       0.06000000
  25 1 1  25 1 100  1       0.03000000       0.03000000       1.00000000      90.00000000       0.06000000
  26 1 1  26 1 100  1       0.03000000       0.03000000       1.00000000      90.00000000       0.06000000
  27 1 1  27 1 100  1       0.03000000       0.03000000       1.00000000      90.00000000       0.06000000
  28 1 1  28 1 100  1       0.03000000       0.03000000       1.00000000      90.00000000       0.06000000
  29 1 1  29 1 100  1       0.03000000       0.03000000       1.00000000      90.00000000       0.06000000
  30 1 1  30 1 100  1       0.03000000       0.03000000       1.00000000      90.00000000       0.06000000
  31 1 1  31 1 100  1       0.03000000       0.03000000       1.00000000      90.00000000       0.06000000
  32 1 1  32 1 100  1       0.03000000       0.03000000       1.00000000      90.00000000       0.06000000
  33 1 1  33 1 100  1       0.03000000       0.03000000       1.00000000      90.00000000       0.06000000
  34 1 1  34 1 100  1       0.03000000       0.03000000       1.00000000      90.00000000       0.06000000
  35 1 1  35 1 100  1       0.03000000       0.03000000       1.00000000      90.00000000       0.06000000
  36 1 1  36 1 100  1       0.03000000       0.03000000       1.00000000      90.00000000       0.06000000
  37 1 1  37 1 100  1       0.03000000       0.03000000       1.00000000      90.00000000       0.06000000
  38 1 1  38 1 100  1       0.03000000       0.03000000       1.00000000      90.00000000       0.06000000
  39 1 1  39 1 100  1       0.03000000       0.03000000       1.00000000      90.00000000       0.06000000
  40 1 1  40 1 100  1       0.03000000       0.03000000       1.00000000      90.00000000       0.06000000
  41 1 1  41 1 100  1       0.03000000       0.03000000       1.00000000      90.00000000       0.06000000
  42 1 1  42 1 100  1       0.03000000       0.03000000       1.00000000      90.00000000       0.06000000
  43 1 1  43 1 100  1       0.03000000       0.03000000       1.00000000      90.00000000       0.06000000
  44 1 1  44 1 100  1       0.03000000       0.03000000       1.00000000      90.00000000       0.06000000
  45 1 1  45 1 100  1       0.03000000       0.03000000       1.00000000      90.00000000       0.06000000
  46 1 1  46 1 100  1       0.03000000       0.03000000       1.00000000      90.00000000       0.06000000
  47 1 1  47 1 100  1       0.03000000       0.03000000       1.00000000      90.00000000       0.06000000
  48 1 1  48 1 100  1       0.03000000       0.03000000       1.00000000      90.00000000       0.06000000
  49 1 1  49 1 100  1       0.03000000       0.03000000       1.00000000      90.00000000       0.06000000
  50 1 1  50 1 100  1       0.03000000       0.03000000       1.00000000      90.00000000       0.06000000
  51 1 1  51 1 100  1       0.03000000       0.03000000       1.00000000      90.00000000       0.06000000
  52 1 1  52 1 100  1       0.03000000       0.03000000       1.00000000      90.00000000       0.06000000
  53 1 1  53 1 100  1       0.03000000       0.03000000       1.00000000      90.00000000       0.06000000
  54 1 1  54 1 100  1       0.03000000       0.03000000       1.00000000      90.00000000       0.06000000
  55 1 1  55 1 100  1       0.03000000       0.03000000       1.00000000      90.00000000       0.06000000
  56 1 1  56 1 100  1       0.03000000       0.03000000       1.00000000      90.00000000       0.06000000
  57 1 1  57 1 100  1       0.03000000       0.03000000       1.00000000      90.00000000       0.06000000
  58 1 1  58 1 100  1       0.03000000       0.03000000       1.00000000      90.00000000       0.06000000
  59 1 1  59 1 100  1       0.03000000       0.03000000       1.00000000      90.00000000       0.06000000
  60 1 1  60 1 100  1       0.03000000       0.03000000       1.00000000      90.00000000       0.06000000
  61 1 1  61 1 100  1       0.03000000       0.03000000       1.00000000      90.00000000       0.06000000
  62 1 1  62 1 100  1       0.03000000       0.03000000       1.00000000      90.00000000       0.06000000
  63 1 1  63 1 100  1       0.03000000       0.03000000       1.00000000      90.00000000       0.06000000
  64 1 1  64 1 100  1       0.03000000       0.03000000       1.00000000      90.00000000       0.06000000
  65 1 1  65 1 100  1       0.03000000       0.03000000       1.00000000      90.00000000       0.06000000
  66 1 1  66 1 100  1       0.03000000       0.03000000       1.00000000      90.00000000       0.06000000
  67 1 1  67 1 100  1       0.03000000       0.03000000       1.00000000      90.00000000       0.06000000
  68 1 1  68 1 100  1       0.03000000       0.03000000       1.00000000      90.00000000       0.06000000
  69 1 1  69 1 100  1       0.03000000       0.03000000       1.00000000      90.00000000       0.06000000
  70 1 1  70 1 100  1       0.03000000       0.03000000       1.00000000      90.00000000       0.06000000
  71 1 1  71 1 100  1       0.03000000       0.03000000       1.00000000      90.00000000       0.06000000
  72 1 1  72 1 100  1       0.03000000       0.03000000       1.00000000      90.00000000       0.06000000
  73 1 1  73 1 100  1       0.03000000       0.03000000       1.00000000      90.00000000       0.06000000
  74 1 1  74 1 100  1       0.03000000       0.03000000       1.00000000      90.00000000       0.06000000
  75 1 1  75 1 100  1       0.03000000       0.03000000       1.00000000      90.00000000       0.06000000
  76 1 1  76 1 100  1       0.03000000       0.03000000       1.00000000      90.00000000       0.06000000
  77 1 1  77 1 100  1       0.03000000       0.03000000       1.00000000      90.00000000       0.06000000
  78 1 1  78 1 100  1       0.03000000       0.03000000       1.00000000      90.00000000       0.06000000
  79 1 1  79 1 100  1       0.03000000       0.03000000       1.00000000      90.00000000       0.06000000
  80 1 1  80 1 100  1       0.03000000       0.03000000       1.00000000      90.00000000       0.06000000
  81 1 1  81 1 100  1       0.03000000       0.03000000       1.00000000      90.00000000       0.06000000
  82 1 1  82 1 100  1       0.03000000       0.03000000       1.00000000      90.00000000       0.06000000
  83 1 1  83 1 100  1       0.03000000       0.03000000       1.00000000      90.00000000       0.06000000
  84 1 1  84 1 100  1       0.03000000       0.03000000       1.00000000      90.00000000       0.06000000
  85 1 1  85 1 100  1       0.03000000       0.03000000       1.00000000      90.00000000       0.06000000
  86 1 1  86 1 100  1       0.03000000       0.03000000       1.00000000      90.00000000       0.06000000
  87 1 1  87 1 100  1       0.03000000       0.03000000       1.00000000      90.00000000       0.06000000
  88 1 1  88 1 100  1       0.03000000       0.03000000       1.00000000      90.00000000       0.06000000
  89 1 1  89 1 100  1       0.03000000       0.03000000       1.00000000      90.00000000       0.06000000
  90 1 1  90 1 100  1       0.03000000       0.03000000       1.00000000      90.00000000       0.06000000
  91 1 1  91 1 100  1       0.03000000       0.03000000       1.00000000      90.00000000       0.06000000
  92 1 1  92 1 100  1       0.03000000       0.03000000       1.00000000      90.00000000       0.06000000
  93 1 1  93 1 100  1       0.03000000       0.03000000       1.00000000      90.00000000       0.06000000
  94 1 1  94 1 100  1       0.03000000       0.03000000       1.00000000      90.00000000       0.06000000
  95 1 1  95 1 100  1       0.03000000       0.03000000       1.00000000      90.00000000       0.06000000
  96 1 1  96 1 100  1       0.03000000       0.03000000       1.00000000      90.00000000       0.06000000
  97 1 1  97 1 100  1       0.03000000       0.03000000       1.00000000      90.00000000       0.06000000
  98 1 1  98 1 100  1       0.03000000       0.03000000       1.00000000      90.00000000       0.06000000
  99 1 1  99 1 100  1       0.03000000       0.03000000       1.00000000      90.00000000       0.06000000
  100 1 1  100 1 100  1       0.03000000       0.03000000       1.00000000      90.00000000       0.06000000
  101 1 1  101 1 100  1       0.03000000       0.03000000       1.00000000      90.00000000       0.06000000
  102 1 1  102 1 100  1       0.03000000       0.03000000       1.00000000      90.00000000       0.06000000
  103 1 1  103 1 100  1       0.03000000       0.03000000       1.00000000      90.00000000       0.06000000
  104 1 1  104 1 100  1       0.03000000       0.03000000       1.00000000      90.00000000       0.06000000
  105 1 1  105 1 100  1       0.03000000       0.03000000       1.00000000      90.00000000       0.06000000
  106 1 1  106 1 100  1       0.03000000       0.03000000       1.00000000      90.00000000       0.06000000
  107 1 1  107 1 100  1       0.03000000       0.03000000       1.00000000      90.00000000       0.06000000
  108 1 1  108 1 100  1       0.03000000       0.03000000       1.00000000      90.00000000       0.06000000
  109 1 1  109 1 100  1       0.03000000       0.03000000       1.00000000      90.00000000       0.06000000
  110 1 1  110 1 100  1       0.03000000       0.03000000       1.00000000      90.00000000       0.06000000
  111 1 1  111 1 100  1       0.03000000       0.03000000       1.00000000      90.00000000       0.06000000
  112 1 1  112 1 100  1       0.03000000       0.03000000       1.00000000      90.00000000       0.06000000
  113 1 1  113 1 100  1       0.03000000       0.03000000       1.00000000      90.00000000       0.06000000
  114 1 1  114 1 100  1       0.03000000       0.03000000       1.00000000      90.00000000       0.06000000
  115 1 1  115 1 100  1       0.03000000       0.03000000       1.00000000      90.00000000       0.06000000
  116 1 1  116 1 100  1       0.03000000       0.03000000       1.00000000      90.00000000       0.06000000
  117 1 1  117 1 100  1       0.03000000       0.03000000       1.00000000      90.00000000       0.06000000
  118 1 1  118 1 100  1       0.03000000       0.03000000       1.00000000      90.00000000       0.06000000
  119 1 1  119 1 100  1       0.03000000       0.03000000       1.00000000      90.00000000       0.06000000
  120 1 1  120 1 100  1       0.03000000       0.03000000       1.00000000      90.00000000       0.06000000
  121 1 1  121 1 100  1       0.03000000       0.03000000       1.00000000      90.00000000       0.06000000
  122 1 1  122 1 100  1       0.03000000       0.03000000       1.00000000      90.00000000       0.06000000
  123 1 1  123 1 100  1       0.03000000       0.03000000       1.00000000      90.00000000       0.06000000
  124 1 1  124 1 100  1       0.03000000       0.03000000       1.00000000      90.00000000       0.06000000
  125 1 1  125 1 100  1       0.03000000       0.03000000       1.00000000      90.00000000       0.06000000
  126 1 1  126 1 100  1       0.03000000       0.03000000       1.00000000      90.00000000       0.06000000
  127 1 1  127 1 100  1       0.03000000       0.03000000       1.00000000      90.00000000       0.06000000
  128 1 1  128 1 100  1       0.03000000       0.03000000       1.00000000      90.00000000       0.06000000
  129 1 1  129 1 100  1       0.03000000       0.03000000       1.00000000      90.00000000       0.06000000
  130 1 1  130 1 100  1       0.03000000       0.03000000       1.00000000      90.00000000       0.06000000
  131 1 1  131 1 100  1       0.03000000       0.03000000       1.00000000      90.00000000       0.06000000
  132 1 1  132 1 100  1       0.03000000       0.03000000       1.00000000      90.00000000       0.06000000
  133 1 1  133 1 100  1       0.03000000       0.03000000       1.00000000      90.00000000       0.06000000
  134 1 1  134 1 100  1       0.03000000       0.03000000       1.00000000      90.00000000       0.06000000
  135 1 1  135 1 100  1       0.03000000       0.03000000       1.00000000      90.00000000       0.06000000
  136 1 1  136 1 100  1       0.03000000       0.03000000       1.00000000      90.00000000       0.06000000
  137 1 1  137 1 100  1       0.03000000       0.03000000       1.00000000      90.00000000       0.06000000
  138 1 1  138 1 100  1       0.03000000       0.03000000       1.00000000      90.00000000       0.06000000
  139 1 1  139 1 100  1       0.03000000       0.03000000       1.00000000      90.00000000       0.06000000
  140 1 1  140 1 100  1       0.03000000       0.03000000       1.00000000      90.00000000       0.06000000
  141 1 1  141 1 100  1       0.03000000       0.03000000       1.00000000      90.00000000       0.06000000
  142 1 1  142 1 100  1       0.03000000       0.03000000       1.00000000      90.00000000       0.06000000
  143 1 1  143 1 100  1       0.03000000       0.03000000       1.00000000      90.00000000       0.06000000
  144 1 1  144 1 100  1       0.03000000       0.03000000       1.00000000      90.00000000       0.06000000
  145 1 1  145 1 100  1       0.03000000       0.03000000       1.00000000      90.00000000       0.06000000
  146 1 1  146 1 100  1       0.03000000       0.03000000       1.00000000      90.00000000       0.06000000
  147 1 1  147 1 100  1       0.03000000       0.03000000       1.00000000      90.00000000       0.06000000
  148 1 1  148 1 100  1       0.03000000       0.03000000       1.00000000      90.00000000       0.06000000
  149 1 1  149 1 100  1       0.03000000       0.03000000       1.00000000      90.00000000       0.06000000
  150 1 1  150 1 100  1       0.03000000       0.03000000       1.00000000      90.00000000       0.06000000
  151 1 1  151 1 100  1       0.03000000       0.03000000       1.00000000      90.00000000       0.06000000
  152 1 1  152 1 100  1       0.03000000       0.03000000       1.00000000      90.00000000       0.06000000
  153 1 1  153 1 100  1       0.03000000       0.03000000       1.00000000      90.00000000       0.06000000
  154 1 1  154 1 100  1       0.03000000       0.03000000       1.00000000      90.00000000       0.06000000
  155 1 1  155 1 100  1       0.03000000       0.03000000       1.00000000      90.00000000       0.06000000
  156 1 1  156 1 100  1       0.03000000       0.03000000       1.00000000      90.00000000       0.06000000
  157 1 1  157 1 100  1       0.03000000       0.03000000       1.00000000      90.00000000       0.06000000
  158 1 1  158 1 100  1       0.03000000       0.03000000       1.00000000      90.00000000       0.06000000
  159 1 1  159 1 100  1       0.03000000       0.03000000       1.00000000      90.00000000       0.06000000
  160 1 1  160 1 100  1       0.03000000       0.03000000       1.00000000      90.00000000       0.06000000
  161 1 1  161 1 100  1       0.03000000       0.03000000       1.00000000      90.00000000       0.06000000
  162 1 1  162 1 100  1       0.03000000       0.03000000       1.00000000      90.00000000       0.06000000
  163 1 1  163 1 100  1       0.03000000       0.03000000       1.00000000      90.00000000       0.06000000
  164 1 1  164 1 100  1       0.03000000       0.03000000       1.00000000      90.00000000       0.06000000
  165 1 1  165 1 100  1       0.03000000       0.03000000       1.00000000      90.00000000       0.06000000
  166 1 1  166 1 100  1       0.03000000       0.03000000       1.00000000      90.00000000       0.06000000
  167 1 1  167 1 100  1       0.03000000       0.03000000       1.00000000      90.00000000       0.06000000
  168 1 1  168 1 100  1       0.03000000       0.03000000       1.00000000      90.00000000       0.06000000
  169 1 1  169 1 100  1       0.03000000       0.03000000       1.00000000      90.00000000       0.06000000
  170 1 1  170 1 100  1       0.03000000       0.03000000       1.00000000      90.00000000       0.06000000
  171 1 1  171 1 100  1       0.03000000       0.03000000       1.00000000      90.00000000       0.06000000
  172 1 1  172 1 100  1       0.03000000       0.03000000       1.00000000      90.00000000       0.06000000
  173 1 1  173 1 100  1       0.03000000       0.03000000       1.00000000      90.00000000       0.06000000
  174 1 1  174 1 100  1       0.03000000       0.03000000       1.00000000      90.00000000       0.06000000
  175 1 1  175 1 100  1       0.03000000       0.03000000       1.00000000      90.00000000       0.06000000
  176 1 1  176 1 100  1       0.03000000       0.03000000       1.00000000      90.00000000       0.06000000
  177 1 1  177 1 100  1       0.03000000       0.03000000       1.00000000      90.00000000       0.06000000
  178 1 1  178 1 100  1       0.03000000       0.03000000       1.00000000      90.00000000       0.06000000
  179 1 1  179 1 100  1       0.03000000       0.03000000       1.00000000      90.00000000       0.06000000
  180 1 1  180 1 100  1       0.03000000       0.03000000       1.00000000      90.00000000       0.06000000
  181 1 1  181 1 100  1       0.03000000       0.03000000       1.00000000      90.00000000       0.06000000
  182 1 1  182 1 100  1       0.03000000       0.03000000       1.00000000      90.00000000       0.06000000
  183 1 1  183 1 100  1       0.03000000       0.03000000       1.00000000      90.00000000       0.06000000
  184 1 1  184 1 100  1       0.03000000       0.03000000       1.00000000      90.00000000       0.06000000
  185 1 1  185 1 100  1       0.03000000       0.03000000       1.00000000      90.00000000       0.06000000
  186 1 1  186 1 100  1       0.03000000       0.03000000       1.00000000      90.00000000       0.06000000
  187 1 1  187 1 100  1       0.03000000       0.03000000       1.00000000      90.00000000       0.06000000
  188 1 1  188 1 100  1       0.03000000       0.03000000       1.00000000      90.00000000       0.06000000
  189 1 1  189 1 100  1       0.03000000       0.03000000       1.00000000      90.00000000       0.06000000
  190 1 1  190 1 100  1       0.03000000       0.03000000       1.00000000      90.00000000       0.06000000
END exchangedata

