# File generated by Flopy version 3.3.5 on 03/04/2022 at 11:17:42.
BEGIN options
END options

BEGIN timing
  TDIS6  ex-gwf-spbc.tdis
END timing

BEGIN models
  gwf6  ex-gwf-spbc.nam  ex-gwf-spbc
END models

BEGIN exchanges
  GWF6-GWF6  ex-gwf-spbc.gwfgwf  ex-gwf-spbc  ex-gwf-spbc
END exchanges

BEGIN solutiongroup  1
  ims6  ex-gwf-spbc.ims  ex-gwf-spbc
END solutiongroup  1

