# File generated by Flopy version 3.3.5 on 03/04/2022 at 11:15:50.
BEGIN options
  SAVE_FLOWS
  NEWTON
END options

BEGIN packages
  DIS6  .\ex-gwf-sagehen.dis  dis
  IC6  .\ex-gwf-sagehen.ic  ic
  NPF6  .\ex-gwf-sagehen.npf  npf
  STO6  .\ex-gwf-sagehen.sto  sto
  OC6  .\ex-gwf-sagehen.oc  oc
  CHD6  .\ex-gwf-sagehen.chd  chd-1
  DRN6  .\ex-gwf-sagehen.drn  drn-1
  SFR6  .\ex-gwf-sagehen.sfr  sfr-1
  UZF6  .\ex-gwf-sagehen.uzf  uzf-1
  MVR6  .\ex-gwf-sagehen.mvr  mvr-1
END packages

