# File generated by Flopy version 3.3.5 on 03/04/2022 at 11:15:51.
BEGIN options
  auxiliary  ddrn
  AUXDEPTHNAME  ddrn
  SAVE_FLOWS
  MOVER
END options

BEGIN dimensions
  MAXBOUND  3178
END dimensions

BEGIN period  1
  1 1 64    2166.00000000   10000.00000000      -0.25000000
  1 1 65    2148.00000000   10000.00000000      -0.25000000
  1 2 63    2170.00000000   10000.00000000      -0.25000000
  1 2 64    2158.00000000   10000.00000000      -0.25000000
  1 2 65    2136.00000000   10000.00000000      -0.25000000
  1 3 63    2161.00000000   10000.00000000      -0.25000000
  1 3 64    2144.00000000   10000.00000000      -0.25000000
  1 3 65    2124.00000000   10000.00000000      -0.25000000
  1 4 62    2158.00000000   10000.00000000      -0.25000000
  1 4 63    2152.00000000   10000.00000000      -0.25000000
  1 4 64    2128.00000000   10000.00000000      -0.25000000
  1 4 65    2121.00000000   10000.00000000      -0.25000000
  1 5 62    2153.00000000   10000.00000000      -0.25000000
  1 5 63    2141.00000000   10000.00000000      -0.25000000
  1 5 64    2122.00000000   10000.00000000      -0.25000000
  1 5 65    2120.00000000   10000.00000000      -0.25000000
  1 5 66    2121.00000000   10000.00000000      -0.25000000
  1 6 62    2149.00000000   10000.00000000      -0.25000000
  1 6 63    2134.00000000   10000.00000000      -0.25000000
  1 6 64    2121.00000000   10000.00000000      -0.25000000
  1 6 65    2119.00000000   10000.00000000      -0.25000000
  1 6 66    2119.00000000   10000.00000000      -0.25000000
  1 6 67    2117.00000000   10000.00000000      -0.25000000
  1 7 61    2156.00000000   10000.00000000      -0.25000000
  1 7 62    2151.00000000   10000.00000000      -0.25000000
  1 7 63    2136.00000000   10000.00000000      -0.25000000
  1 7 64    2125.00000000   10000.00000000      -0.25000000
  1 7 65    2118.00000000   10000.00000000      -0.25000000
  1 7 66    2115.00000000   10000.00000000      -0.25000000
  1 7 67    2114.00000000   10000.00000000      -0.25000000
  1 7 68    2116.00000000   10000.00000000      -0.25000000
  1 8 61    2160.00000000   10000.00000000      -0.25000000
  1 8 62    2153.00000000   10000.00000000      -0.25000000
  1 8 63    2142.00000000   10000.00000000      -0.25000000
  1 8 64    2130.00000000   10000.00000000      -0.25000000
  1 8 65    2117.00000000   10000.00000000      -0.25000000
  1 8 66    2111.00000000   10000.00000000      -0.25000000
  1 8 67    2112.00000000   10000.00000000      -0.25000000
  1 8 68    2115.00000000   10000.00000000      -0.25000000
  1 8 69    2120.00000000   10000.00000000      -0.25000000
  1 8 70    2123.00000000   10000.00000000      -0.25000000
  1 8 71    2125.00000000   10000.00000000      -0.25000000
  1 9 49    2185.00000000   10000.00000000      -0.25000000
  1 9 50    2184.00000000   10000.00000000      -0.25000000
  1 9 59    2152.00000000   10000.00000000      -0.25000000
  1 9 60    2156.00000000   10000.00000000      -0.25000000
  1 9 61    2155.00000000   10000.00000000      -0.25000000
  1 9 62    2146.00000000   10000.00000000      -0.25000000
  1 9 63    2138.00000000   10000.00000000      -0.25000000
  1 9 64    2128.00000000   10000.00000000      -0.25000000
  1 9 65    2114.00000000   10000.00000000      -0.25000000
  1 9 66    2109.00000000   10000.00000000      -0.25000000
  1 9 67    2110.00000000   10000.00000000      -0.25000000
  1 9 68    2114.00000000   10000.00000000      -0.25000000
  1 9 69    2119.00000000   10000.00000000      -0.25000000
  1 9 70    2124.00000000   10000.00000000      -0.25000000
  1 9 71    2126.00000000   10000.00000000      -0.25000000
  1 9 72    2122.00000000   10000.00000000      -0.25000000
  1 9 73    2120.00000000   10000.00000000      -0.25000000
  1 9 74    2121.00000000   10000.00000000      -0.25000000
  1 9 75    2123.00000000   10000.00000000      -0.25000000
  1 10 48    2188.00000000   10000.00000000      -0.25000000
  1 10 49    2183.00000000   10000.00000000      -0.25000000
  1 10 50    2182.00000000   10000.00000000      -0.25000000
  1 10 51    2186.00000000   10000.00000000      -0.25000000
  1 10 52    2181.00000000   10000.00000000      -0.25000000
  1 10 53    2172.00000000   10000.00000000      -0.25000000
  1 10 57    2153.00000000   10000.00000000      -0.25000000
  1 10 58    2151.00000000   10000.00000000      -0.25000000
  1 10 59    2149.00000000   10000.00000000      -0.25000000
  1 10 60    2148.00000000   10000.00000000      -0.25000000
  1 10 61    2147.00000000   10000.00000000      -0.25000000
  1 10 62    2142.00000000   10000.00000000      -0.25000000
  1 10 63    2133.00000000   10000.00000000      -0.25000000
  1 10 64    2121.00000000   10000.00000000      -0.25000000
  1 10 65    2112.00000000   10000.00000000      -0.25000000
  1 10 66    2107.00000000   10000.00000000      -0.25000000
  1 10 67    2108.00000000   10000.00000000      -0.25000000
  1 10 68    2109.00000000   10000.00000000      -0.25000000
  1 10 69    2118.00000000   10000.00000000      -0.25000000
  1 10 70    2122.00000000   10000.00000000      -0.25000000
  1 10 71    2125.00000000   10000.00000000      -0.25000000
  1 10 72    2123.00000000   10000.00000000      -0.25000000
  1 10 73    2118.00000000   10000.00000000      -0.25000000
  1 10 74    2119.00000000   10000.00000000      -0.25000000
  1 10 75    2120.00000000   10000.00000000      -0.25000000
  1 10 76    2122.00000000   10000.00000000      -0.25000000
  1 11 47    2194.00000000   10000.00000000      -0.25000000
  1 11 48    2186.00000000   10000.00000000      -0.25000000
  1 11 49    2178.00000000   10000.00000000      -0.25000000
  1 11 50    2179.00000000   10000.00000000      -0.25000000
  1 11 51    2176.00000000   10000.00000000      -0.25000000
  1 11 52    2169.00000000   10000.00000000      -0.25000000
  1 11 53    2166.00000000   10000.00000000      -0.25000000
  1 11 54    2165.00000000   10000.00000000      -0.25000000
  1 11 55    2163.00000000   10000.00000000      -0.25000000
  1 11 56    2160.00000000   10000.00000000      -0.25000000
  1 11 57    2156.00000000   10000.00000000      -0.25000000
  1 11 58    2150.00000000   10000.00000000      -0.25000000
  1 11 59    2147.00000000   10000.00000000      -0.25000000
  1 11 60    2144.00000000   10000.00000000      -0.25000000
  1 11 61    2141.00000000   10000.00000000      -0.25000000
  1 11 62    2138.00000000   10000.00000000      -0.25000000
  1 11 63    2130.00000000   10000.00000000      -0.25000000
  1 11 64    2119.00000000   10000.00000000      -0.25000000
  1 11 65    2110.00000000   10000.00000000      -0.25000000
  1 11 66    2105.00000000   10000.00000000      -0.25000000
  1 11 67    2106.00000000   10000.00000000      -0.25000000
  1 11 68    2107.00000000   10000.00000000      -0.25000000
  1 11 69    2116.00000000   10000.00000000      -0.25000000
  1 11 70    2123.00000000   10000.00000000      -0.25000000
  1 11 71    2124.00000000   10000.00000000      -0.25000000
  1 11 72    2122.00000000   10000.00000000      -0.25000000
  1 11 73    2117.00000000   10000.00000000      -0.25000000
  1 11 74    2112.00000000   10000.00000000      -0.25000000
  1 11 75    2114.00000000   10000.00000000      -0.25000000
  1 11 76    2118.00000000   10000.00000000      -0.25000000
  1 12 47    2193.00000000   10000.00000000      -0.25000000
  1 12 48    2182.00000000   10000.00000000      -0.25000000
  1 12 49    2174.00000000   10000.00000000      -0.25000000
  1 12 50    2167.00000000   10000.00000000      -0.25000000
  1 12 51    2158.00000000   10000.00000000      -0.25000000
  1 12 52    2156.00000000   10000.00000000      -0.25000000
  1 12 53    2157.00000000   10000.00000000      -0.25000000
  1 12 54    2161.00000000   10000.00000000      -0.25000000
  1 12 55    2162.00000000   10000.00000000      -0.25000000
  1 12 56    2159.00000000   10000.00000000      -0.25000000
  1 12 57    2154.00000000   10000.00000000      -0.25000000
  1 12 58    2148.00000000   10000.00000000      -0.25000000
  1 12 59    2143.00000000   10000.00000000      -0.25000000
  1 12 60    2139.00000000   10000.00000000      -0.25000000
  1 12 61    2136.00000000   10000.00000000      -0.25000000
  1 12 62    2135.00000000   10000.00000000      -0.25000000
  1 12 63    2131.00000000   10000.00000000      -0.25000000
  1 12 64    2118.00000000   10000.00000000      -0.25000000
  1 12 65    2109.00000000   10000.00000000      -0.25000000
  1 12 66    2104.00000000   10000.00000000      -0.25000000
  1 12 67    2105.00000000   10000.00000000      -0.25000000
  1 12 68    2105.00000000   10000.00000000      -0.25000000
  1 12 69    2112.00000000   10000.00000000      -0.25000000
  1 12 70    2117.00000000   10000.00000000      -0.25000000
  1 12 71    2120.00000000   10000.00000000      -0.25000000
  1 12 72    2119.00000000   10000.00000000      -0.25000000
  1 12 73    2115.00000000   10000.00000000      -0.25000000
  1 12 74    2110.00000000   10000.00000000      -0.25000000
  1 12 75    2108.00000000   10000.00000000      -0.25000000
  1 12 76    2112.00000000   10000.00000000      -0.25000000
  1 12 77    2117.00000000   10000.00000000      -0.25000000
  1 13 45    2207.00000000   10000.00000000      -0.25000000
  1 13 46    2197.00000000   10000.00000000      -0.25000000
  1 13 47    2187.00000000   10000.00000000      -0.25000000
  1 13 48    2179.00000000   10000.00000000      -0.25000000
  1 13 49    2171.00000000   10000.00000000      -0.25000000
  1 13 50    2159.00000000   10000.00000000      -0.25000000
  1 13 51    2150.00000000   10000.00000000      -0.25000000
  1 13 52    2144.00000000   10000.00000000      -0.25000000
  1 13 53    2145.00000000   10000.00000000      -0.25000000
  1 13 54    2152.00000000   10000.00000000      -0.25000000
  1 13 55    2157.00000000   10000.00000000      -0.25000000
  1 13 56    2156.00000000   10000.00000000      -0.25000000
  1 13 57    2151.00000000   10000.00000000      -0.25000000
  1 13 58    2145.00000000   10000.00000000      -0.25000000
  1 13 59    2140.00000000   10000.00000000      -0.25000000
  1 13 60    2135.00000000   10000.00000000      -0.25000000
  1 13 61    2132.00000000   10000.00000000      -0.25000000
  1 13 62    2130.00000000   10000.00000000      -0.25000000
  1 13 63    2127.00000000   10000.00000000      -0.25000000
  1 13 64    2117.00000000   10000.00000000      -0.25000000
  1 13 65    2108.00000000   10000.00000000      -0.25000000
  1 13 66    2103.00000000   10000.00000000      -0.25000000
  1 13 67    2102.00000000   10000.00000000      -0.25000000
  1 13 68    2102.00000000   10000.00000000      -0.25000000
  1 13 69    2107.00000000   10000.00000000      -0.25000000
  1 13 70    2110.00000000   10000.00000000      -0.25000000
  1 13 71    2112.00000000   10000.00000000      -0.25000000
  1 13 72    2114.00000000   10000.00000000      -0.25000000
  1 13 73    2112.00000000   10000.00000000      -0.25000000
  1 13 74    2107.00000000   10000.00000000      -0.25000000
  1 13 75    2102.00000000   10000.00000000      -0.25000000
  1 13 76    2109.00000000   10000.00000000      -0.25000000
  1 13 77    2116.00000000   10000.00000000      -0.25000000
  1 13 78    2123.00000000   10000.00000000      -0.25000000
  1 14 42    2219.00000000   10000.00000000      -0.25000000
  1 14 43    2213.00000000   10000.00000000      -0.25000000
  1 14 44    2209.00000000   10000.00000000      -0.25000000
  1 14 45    2200.00000000   10000.00000000      -0.25000000
  1 14 46    2185.00000000   10000.00000000      -0.25000000
  1 14 47    2178.00000000   10000.00000000      -0.25000000
  1 14 48    2172.00000000   10000.00000000      -0.25000000
  1 14 49    2161.00000000   10000.00000000      -0.25000000
  1 14 50    2156.00000000   10000.00000000      -0.25000000
  1 14 51    2151.00000000   10000.00000000      -0.25000000
  1 14 52    2147.00000000   10000.00000000      -0.25000000
  1 14 53    2135.00000000   10000.00000000      -0.25000000
  1 14 54    2140.00000000   10000.00000000      -0.25000000
  1 14 55    2147.00000000   10000.00000000      -0.25000000
  1 14 56    2149.00000000   10000.00000000      -0.25000000
  1 14 57    2147.00000000   10000.00000000      -0.25000000
  1 14 58    2142.00000000   10000.00000000      -0.25000000
  1 14 59    2137.00000000   10000.00000000      -0.25000000
  1 14 60    2130.00000000   10000.00000000      -0.25000000
  1 14 61    2129.00000000   10000.00000000      -0.25000000
  1 14 62    2126.00000000   10000.00000000      -0.25000000
  1 14 63    2122.00000000   10000.00000000      -0.25000000
  1 14 64    2116.00000000   10000.00000000      -0.25000000
  1 14 65    2111.00000000   10000.00000000      -0.25000000
  1 14 66    2102.00000000   10000.00000000      -0.25000000
  1 14 67    2100.00000000   10000.00000000      -0.25000000
  1 14 68    2098.00000000   10000.00000000      -0.25000000
  1 14 69    2101.00000000   10000.00000000      -0.25000000
  1 14 70    2104.00000000   10000.00000000      -0.25000000
  1 14 71    2107.00000000   10000.00000000      -0.25000000
  1 14 72    2108.00000000   10000.00000000      -0.25000000
  1 14 73    2106.00000000   10000.00000000      -0.25000000
  1 14 74    2100.00000000   10000.00000000      -0.25000000
  1 14 75    2099.00000000   10000.00000000      -0.25000000
  1 14 76    2108.00000000   10000.00000000      -0.25000000
  1 14 77    2115.00000000   10000.00000000      -0.25000000
  1 14 78    2124.00000000   10000.00000000      -0.25000000
  1 14 79    2128.00000000   10000.00000000      -0.25000000
  1 15 41    2225.00000000   10000.00000000      -0.25000000
  1 15 42    2218.00000000   10000.00000000      -0.25000000
  1 15 43    2208.00000000   10000.00000000      -0.25000000
  1 15 44    2206.00000000   10000.00000000      -0.25000000
  1 15 45    2191.00000000   10000.00000000      -0.25000000
  1 15 46    2180.00000000   10000.00000000      -0.25000000
  1 15 47    2174.00000000   10000.00000000      -0.25000000
  1 15 48    2167.00000000   10000.00000000      -0.25000000
  1 15 49    2158.00000000   10000.00000000      -0.25000000
  1 15 50    2155.00000000   10000.00000000      -0.25000000
  1 15 51    2150.00000000   10000.00000000      -0.25000000
  1 15 52    2148.00000000   10000.00000000      -0.25000000
  1 15 53    2133.00000000   10000.00000000      -0.25000000
  1 15 54    2128.00000000   10000.00000000      -0.25000000
  1 15 55    2132.00000000   10000.00000000      -0.25000000
  1 15 56    2136.00000000   10000.00000000      -0.25000000
  1 15 57    2139.00000000   10000.00000000      -0.25000000
  1 15 58    2138.00000000   10000.00000000      -0.25000000
  1 15 59    2134.00000000   10000.00000000      -0.25000000
  1 15 60    2128.00000000   10000.00000000      -0.25000000
  1 15 61    2125.00000000   10000.00000000      -0.25000000
  1 15 62    2121.00000000   10000.00000000      -0.25000000
  1 15 63    2118.00000000   10000.00000000      -0.25000000
  1 15 64    2115.00000000   10000.00000000      -0.25000000
  1 15 65    2110.00000000   10000.00000000      -0.25000000
  1 15 66    2104.00000000   10000.00000000      -0.25000000
  1 15 67    2099.00000000   10000.00000000      -0.25000000
  1 15 68    2094.00000000   10000.00000000      -0.25000000
  1 15 69    2095.00000000   10000.00000000      -0.25000000
  1 15 70    2097.00000000   10000.00000000      -0.25000000
  1 15 71    2101.00000000   10000.00000000      -0.25000000
  1 15 72    2102.00000000   10000.00000000      -0.25000000
  1 15 73    2099.00000000   10000.00000000      -0.25000000
  1 15 74    2094.00000000   10000.00000000      -0.25000000
  1 15 75    2095.00000000   10000.00000000      -0.25000000
  1 15 76    2103.00000000   10000.00000000      -0.25000000
  1 15 77    2113.00000000   10000.00000000      -0.25000000
  1 15 78    2121.00000000   10000.00000000      -0.25000000
  1 15 79    2127.00000000   10000.00000000      -0.25000000
  1 15 80    2131.00000000   10000.00000000      -0.25000000
  1 16 40    2230.00000000   10000.00000000      -0.25000000
  1 16 41    2222.00000000   10000.00000000      -0.25000000
  1 16 42    2224.00000000   10000.00000000      -0.25000000
  1 16 43    2226.00000000   10000.00000000      -0.25000000
  1 16 44    2215.00000000   10000.00000000      -0.25000000
  1 16 45    2198.00000000   10000.00000000      -0.25000000
  1 16 46    2188.00000000   10000.00000000      -0.25000000
  1 16 47    2179.00000000   10000.00000000      -0.25000000
  1 16 48    2168.00000000   10000.00000000      -0.25000000
  1 16 49    2157.00000000   10000.00000000      -0.25000000
  1 16 50    2154.00000000   10000.00000000      -0.25000000
  1 16 51    2149.00000000   10000.00000000      -0.25000000
  1 16 52    2142.00000000   10000.00000000      -0.25000000
  1 16 53    2131.00000000   10000.00000000      -0.25000000
  1 16 54    2122.00000000   10000.00000000      -0.25000000
  1 16 55    2117.00000000   10000.00000000      -0.25000000
  1 16 56    2121.00000000   10000.00000000      -0.25000000
  1 16 57    2130.00000000   10000.00000000      -0.25000000
  1 16 58    2131.00000000   10000.00000000      -0.25000000
  1 16 59    2127.00000000   10000.00000000      -0.25000000
  1 16 60    2123.00000000   10000.00000000      -0.25000000
  1 16 61    2120.00000000   10000.00000000      -0.25000000
  1 16 62    2116.00000000   10000.00000000      -0.25000000
  1 16 63    2113.00000000   10000.00000000      -0.25000000
  1 16 64    2108.00000000   10000.00000000      -0.25000000
  1 16 65    2109.00000000   10000.00000000      -0.25000000
  1 16 66    2103.00000000   10000.00000000      -0.25000000
  1 16 67    2098.00000000   10000.00000000      -0.25000000
  1 16 68    2091.00000000   10000.00000000      -0.25000000
  1 16 69    2092.00000000   10000.00000000      -0.25000000
  1 16 70    2094.00000000   10000.00000000      -0.25000000
  1 16 71    2096.00000000   10000.00000000      -0.25000000
  1 16 72    2095.00000000   10000.00000000      -0.25000000
  1 16 73    2092.00000000   10000.00000000      -0.25000000
  1 16 74    2088.00000000   10000.00000000      -0.25000000
  1 16 75    2089.00000000   10000.00000000      -0.25000000
  1 16 76    2097.00000000   10000.00000000      -0.25000000
  1 16 77    2109.00000000   10000.00000000      -0.25000000
  1 16 78    2120.00000000   10000.00000000      -0.25000000
  1 16 79    2126.00000000   10000.00000000      -0.25000000
  1 16 80    2128.00000000   10000.00000000      -0.25000000
  1 17 40    2235.00000000   10000.00000000      -0.25000000
  1 17 41    2240.00000000   10000.00000000      -0.25000000
  1 17 42    2241.00000000   10000.00000000      -0.25000000
  1 17 43    2235.00000000   10000.00000000      -0.25000000
  1 17 44    2220.00000000   10000.00000000      -0.25000000
  1 17 45    2202.00000000   10000.00000000      -0.25000000
  1 17 46    2191.00000000   10000.00000000      -0.25000000
  1 17 47    2181.00000000   10000.00000000      -0.25000000
  1 17 48    2175.00000000   10000.00000000      -0.25000000
  1 17 49    2164.00000000   10000.00000000      -0.25000000
  1 17 50    2155.00000000   10000.00000000      -0.25000000
  1 17 51    2148.00000000   10000.00000000      -0.25000000
  1 17 52    2141.00000000   10000.00000000      -0.25000000
  1 17 53    2135.00000000   10000.00000000      -0.25000000
  1 17 54    2126.00000000   10000.00000000      -0.25000000
  1 17 55    2107.00000000   10000.00000000      -0.25000000
  1 17 56    2106.00000000   10000.00000000      -0.25000000
  1 17 57    2120.00000000   10000.00000000      -0.25000000
  1 17 58    2122.00000000   10000.00000000      -0.25000000
  1 17 59    2119.00000000   10000.00000000      -0.25000000
  1 17 60    2116.00000000   10000.00000000      -0.25000000
  1 17 61    2112.00000000   10000.00000000      -0.25000000
  1 17 62    2110.00000000   10000.00000000      -0.25000000
  1 17 63    2107.00000000   10000.00000000      -0.25000000
  1 17 64    2107.00000000   10000.00000000      -0.25000000
  1 17 65    2106.00000000   10000.00000000      -0.25000000
  1 17 66    2104.00000000   10000.00000000      -0.25000000
  1 17 67    2100.00000000   10000.00000000      -0.25000000
  1 17 68    2090.00000000   10000.00000000      -0.25000000
  1 17 69    2087.00000000   10000.00000000      -0.25000000
  1 17 70    2090.00000000   10000.00000000      -0.25000000
  1 17 71    2092.00000000   10000.00000000      -0.25000000
  1 17 72    2091.00000000   10000.00000000      -0.25000000
  1 17 73    2085.00000000   10000.00000000      -0.25000000
  1 17 74    2082.00000000   10000.00000000      -0.25000000
  1 17 75    2081.00000000   10000.00000000      -0.25000000
  1 17 76    2090.00000000   10000.00000000      -0.25000000
  1 17 77    2106.00000000   10000.00000000      -0.25000000
  1 17 78    2119.00000000   10000.00000000      -0.25000000
  1 17 79    2122.00000000   10000.00000000      -0.25000000
  1 17 80    2123.00000000   10000.00000000      -0.25000000
  1 18 40    2248.00000000   10000.00000000      -0.25000000
  1 18 41    2242.00000000   10000.00000000      -0.25000000
  1 18 42    2233.00000000   10000.00000000      -0.25000000
  1 18 43    2221.00000000   10000.00000000      -0.25000000
  1 18 44    2207.00000000   10000.00000000      -0.25000000
  1 18 45    2193.00000000   10000.00000000      -0.25000000
  1 18 46    2180.00000000   10000.00000000      -0.25000000
  1 18 47    2171.00000000   10000.00000000      -0.25000000
  1 18 48    2165.00000000   10000.00000000      -0.25000000
  1 18 49    2157.00000000   10000.00000000      -0.25000000
  1 18 50    2150.00000000   10000.00000000      -0.25000000
  1 18 51    2146.00000000   10000.00000000      -0.25000000
  1 18 52    2140.00000000   10000.00000000      -0.25000000
  1 18 53    2136.00000000   10000.00000000      -0.25000000
  1 18 54    2123.00000000   10000.00000000      -0.25000000
  1 18 55    2100.00000000   10000.00000000      -0.25000000
  1 18 56    2094.00000000   10000.00000000      -0.25000000
  1 18 57    2109.00000000   10000.00000000      -0.25000000
  1 18 58    2113.00000000   10000.00000000      -0.25000000
  1 18 59    2111.00000000   10000.00000000      -0.25000000
  1 18 60    2108.00000000   10000.00000000      -0.25000000
  1 18 61    2106.00000000   10000.00000000      -0.25000000
  1 18 62    2106.00000000   10000.00000000      -0.25000000
  1 18 63    2104.00000000   10000.00000000      -0.25000000
  1 18 64    2105.00000000   10000.00000000      -0.25000000
  1 18 65    2103.00000000   10000.00000000      -0.25000000
  1 18 66    2102.00000000   10000.00000000      -0.25000000
  1 18 67    2099.00000000   10000.00000000      -0.25000000
  1 18 68    2089.00000000   10000.00000000      -0.25000000
  1 18 69    2083.00000000   10000.00000000      -0.25000000
  1 18 70    2088.00000000   10000.00000000      -0.25000000
  1 18 71    2089.00000000   10000.00000000      -0.25000000
  1 18 72    2088.00000000   10000.00000000      -0.25000000
  1 18 73    2084.00000000   10000.00000000      -0.25000000
  1 18 74    2076.00000000   10000.00000000      -0.25000000
  1 18 75    2075.00000000   10000.00000000      -0.25000000
  1 18 76    2082.00000000   10000.00000000      -0.25000000
  1 18 77    2096.00000000   10000.00000000      -0.25000000
  1 18 78    2110.00000000   10000.00000000      -0.25000000
  1 18 79    2115.00000000   10000.00000000      -0.25000000
  1 18 80    2119.00000000   10000.00000000      -0.25000000
  1 19 35    2262.00000000   10000.00000000      -0.25000000
  1 19 36    2252.00000000   10000.00000000      -0.25000000
  1 19 37    2253.00000000   10000.00000000      -0.25000000
  1 19 38    2251.00000000   10000.00000000      -0.25000000
  1 19 39    2243.00000000   10000.00000000      -0.25000000
  1 19 40    2234.00000000   10000.00000000      -0.25000000
  1 19 41    2224.00000000   10000.00000000      -0.25000000
  1 19 42    2213.00000000   10000.00000000      -0.25000000
  1 19 43    2203.00000000   10000.00000000      -0.25000000
  1 19 44    2191.00000000   10000.00000000      -0.25000000
  1 19 45    2180.00000000   10000.00000000      -0.25000000
  1 19 46    2170.00000000   10000.00000000      -0.25000000
  1 19 47    2162.00000000   10000.00000000      -0.25000000
  1 19 48    2153.00000000   10000.00000000      -0.25000000
  1 19 49    2143.00000000   10000.00000000      -0.25000000
  1 19 50    2136.00000000   10000.00000000      -0.25000000
  1 19 51    2130.00000000   10000.00000000      -0.25000000
  1 19 52    2126.00000000   10000.00000000      -0.25000000
  1 19 53    2124.00000000   10000.00000000      -0.25000000
  1 19 54    2109.00000000   10000.00000000      -0.25000000
  1 19 55    2087.00000000   10000.00000000      -0.25000000
  1 19 56    2086.00000000   10000.00000000      -0.25000000
  1 19 57    2098.00000000   10000.00000000      -0.25000000
  1 19 58    2102.00000000   10000.00000000      -0.25000000
  1 19 59    2101.00000000   10000.00000000      -0.25000000
  1 19 60    2099.00000000   10000.00000000      -0.25000000
  1 19 61    2100.00000000   10000.00000000      -0.25000000
  1 19 62    2098.00000000   10000.00000000      -0.25000000
  1 19 63    2099.00000000   10000.00000000      -0.25000000
  1 19 64    2102.00000000   10000.00000000      -0.25000000
  1 19 65    2101.00000000   10000.00000000      -0.25000000
  1 19 66    2099.00000000   10000.00000000      -0.25000000
  1 19 67    2096.00000000   10000.00000000      -0.25000000
  1 19 68    2088.00000000   10000.00000000      -0.25000000
  1 19 69    2080.00000000   10000.00000000      -0.25000000
  1 19 70    2085.00000000   10000.00000000      -0.25000000
  1 19 71    2086.00000000   10000.00000000      -0.25000000
  1 19 72    2084.00000000   10000.00000000      -0.25000000
  1 19 73    2081.00000000   10000.00000000      -0.25000000
  1 19 74    2072.00000000   10000.00000000      -0.25000000
  1 19 75    2070.00000000   10000.00000000      -0.25000000
  1 19 76    2076.00000000   10000.00000000      -0.25000000
  1 19 77    2085.00000000   10000.00000000      -0.25000000
  1 19 78    2097.00000000   10000.00000000      -0.25000000
  1 19 79    2107.00000000   10000.00000000      -0.25000000
  1 19 80    2113.00000000   10000.00000000      -0.25000000
  1 19 81    2115.00000000   10000.00000000      -0.25000000
  1 20 33    2270.00000000   10000.00000000      -0.25000000
  1 20 34    2256.00000000   10000.00000000      -0.25000000
  1 20 35    2240.00000000   10000.00000000      -0.25000000
  1 20 36    2225.00000000   10000.00000000      -0.25000000
  1 20 37    2228.00000000   10000.00000000      -0.25000000
  1 20 38    2227.00000000   10000.00000000      -0.25000000
  1 20 39    2222.00000000   10000.00000000      -0.25000000
  1 20 40    2213.00000000   10000.00000000      -0.25000000
  1 20 41    2204.00000000   10000.00000000      -0.25000000
  1 20 42    2193.00000000   10000.00000000      -0.25000000
  1 20 43    2182.00000000   10000.00000000      -0.25000000
  1 20 44    2172.00000000   10000.00000000      -0.25000000
  1 20 45    2162.00000000   10000.00000000      -0.25000000
  1 20 46    2155.00000000   10000.00000000      -0.25000000
  1 20 47    2150.00000000   10000.00000000      -0.25000000
  1 20 48    2146.00000000   10000.00000000      -0.25000000
  1 20 49    2137.00000000   10000.00000000      -0.25000000
  1 20 50    2124.00000000   10000.00000000      -0.25000000
  1 20 51    2112.00000000   10000.00000000      -0.25000000
  1 20 52    2102.00000000   10000.00000000      -0.25000000
  1 20 53    2100.00000000   10000.00000000      -0.25000000
  1 20 54    2090.00000000   10000.00000000      -0.25000000
  1 20 55    2073.00000000   10000.00000000      -0.25000000
  1 20 56    2075.00000000   10000.00000000      -0.25000000
  1 20 57    2085.00000000   10000.00000000      -0.25000000
  1 20 58    2093.00000000   10000.00000000      -0.25000000
  1 20 59    2092.00000000   10000.00000000      -0.25000000
  1 20 60    2093.00000000   10000.00000000      -0.25000000
  1 20 61    2094.00000000   10000.00000000      -0.25000000
  1 20 62    2093.00000000   10000.00000000      -0.25000000
  1 20 63    2096.00000000   10000.00000000      -0.25000000
  1 20 64    2098.00000000   10000.00000000      -0.25000000
  1 20 65    2100.00000000   10000.00000000      -0.25000000
  1 20 66    2098.00000000   10000.00000000      -0.25000000
  1 20 67    2091.00000000   10000.00000000      -0.25000000
  1 20 68    2085.00000000   10000.00000000      -0.25000000
  1 20 69    2075.00000000   10000.00000000      -0.25000000
  1 20 70    2077.00000000   10000.00000000      -0.25000000
  1 20 71    2078.00000000   10000.00000000      -0.25000000
  1 20 72    2073.00000000   10000.00000000      -0.25000000
  1 20 73    2068.00000000   10000.00000000      -0.25000000
  1 20 74    2065.00000000   10000.00000000      -0.25000000
  1 20 75    2063.00000000   10000.00000000      -0.25000000
  1 20 76    2066.00000000   10000.00000000      -0.25000000
  1 20 77    2074.00000000   10000.00000000      -0.25000000
  1 20 78    2084.00000000   10000.00000000      -0.25000000
  1 20 79    2100.00000000   10000.00000000      -0.25000000
  1 20 80    2108.00000000   10000.00000000      -0.25000000
  1 20 81    2112.00000000   10000.00000000      -0.25000000
  1 21 30    2284.00000000   10000.00000000      -0.25000000
  1 21 31    2273.00000000   10000.00000000      -0.25000000
  1 21 32    2256.00000000   10000.00000000      -0.25000000
  1 21 33    2243.00000000   10000.00000000      -0.25000000
  1 21 34    2231.00000000   10000.00000000      -0.25000000
  1 21 35    2213.00000000   10000.00000000      -0.25000000
  1 21 36    2196.00000000   10000.00000000      -0.25000000
  1 21 37    2201.00000000   10000.00000000      -0.25000000
  1 21 38    2202.00000000   10000.00000000      -0.25000000
  1 21 39    2199.00000000   10000.00000000      -0.25000000