# File generated by Flopy version 3.3.5 on 03/04/2022 at 11:15:51.
BEGIN options
  BOUNDNAMES
  SAVE_FLOWS
  BUDGET  FILEOUT  ex-gwf-sagehen.sfr.bud
  MOVER
  UNIT_CONVERSION   86400.00000000
END options

BEGIN dimensions
  NREACHES  213
END dimensions

BEGIN packagedata
  1  1 45 9      90.00000000       3.00000000       0.15000000    2458.00000000       1.00000000       0.60000000  0.04  1       1.00000000  0
  2  1 44 9      90.00000000       3.00000000       0.12000000    2449.00000000       1.00000000       0.60000000  0.04  2       1.00000000  0
  3  1 43 9      75.00000000       3.00000000       0.18000000    2337.00000000       1.00000000       0.60000000  0.04  2       1.00000000  0
  4  1 43 10      75.00000000       3.00000000       0.16000000    2416.00000000       1.00000000       0.60000000  0.04  2       1.00000000  0
  5  1 42 10      75.00000000       3.00000000       0.13000000    2413.00000000       1.00000000       0.60000000  0.04  2       1.00000000  0
  6  1 42 11      90.00000000       3.00000000       0.11100000    2397.00000000       1.00000000       0.60000000  0.04  2       1.00000000  0
  7  1 42 12      75.00000000       3.00000000       0.04700000    2393.00000000       1.00000000       0.60000000  0.04  2       1.00000000  0
  8  1 41 12      75.00000000       3.00000000       0.06000000    2390.00000000       1.00000000       0.60000000  0.04  2       1.00000000  0
  9  1 41 13      75.00000000       3.00000000       0.04000000    2386.00000000       1.00000000       0.60000000  0.04  2       1.00000000  0
  10  1 40 13      75.00000000       3.00000000       0.10000000    2384.00000000       1.00000000       0.60000000  0.04  2       1.00000000  0
  11  1 40 14      75.00000000       3.00000000       0.22700000    2367.00000000       1.00000000       0.60000000  0.04  2       1.00000000  0
  12  1 39 14      75.00000000       3.00000000       0.09000000    2360.00000000       1.00000000       0.60000000  0.04  2       1.00000000  0
  13  1 39 15      90.00000000       3.00000000       0.04200000    2355.00000000       1.00000000       0.60000000  0.04  2       1.00000000  0
  14  1 39 16      90.00000000       3.00000000       0.06400000    2351.00000000       1.00000000       0.60000000  0.04  2       1.00000000  0
  15  1 39 17      60.00000000       3.00000000       0.08300000    2344.00000000       1.00000000       0.60000000  0.04  2       1.00000000  0
  16  1 38 17      30.00000000       3.00000000       0.08100000    2341.00000000       1.00000000       0.60000000  0.04  2       1.00000000  0
  17  1 38 18     102.00000000       3.00000000       0.06200000    2335.00000000       1.00000000       0.60000000  0.04  2       1.00000000  0
  18  1 38 19      90.00000000       3.00000000       0.06500000    2331.00000000       1.00000000       0.60000000  0.04  2       1.00000000  0
  19  1 38 20      90.00000000       3.00000000       0.08900000    2323.00000000       1.00000000       0.60000000  0.04  2       1.00000000  0
  20  1 38 21      90.00000000       3.00000000       0.09700000    2315.00000000       1.00000000       0.60000000  0.04  2       1.00000000  0
  21  1 38 22     102.00000000       3.00000000       0.14100000    2305.00000000       1.00000000       0.60000000  0.04  2       1.00000000  0
  22  1 38 23     102.00000000       3.00000000       0.18600000    2287.00000000       1.00000000       0.60000000  0.04  2       1.00000000  0
  23  1 37 24     102.00000000       3.00000000       0.21700000    2267.00000000       1.00000000       0.60000000  0.04  2       1.00000000  0
  24  1 37 25      72.00000000       3.00000000       0.20300000    2246.00000000       1.00000000       0.60000000  0.04  2       1.00000000  0
  25  1 36 25      30.00000000       3.00000000       0.20600000    2239.00000000       1.00000000       0.60000000  0.04  2       1.00000000  0
  26  1 36 26      72.00000000       3.00000000       0.20600000    2225.00000000       1.00000000       0.60000000  0.04  2       1.00000000  0
  27  1 35 26      30.00000000       3.00000000       0.14400000    2218.00000000       1.00000000       0.60000000  0.04  2       1.00000000  0
  28  1 35 27      90.00000000       3.00000000       0.14700000    2209.00000000       1.00000000       0.60000000  0.04  2       1.00000000  0
  29  1 36 28     102.00000000       3.00000000       0.13500000    2195.00000000       1.00000000       0.60000000  0.04  2       1.00000000  0
  30  1 36 29      90.00000000       3.00000000       0.12900000    2183.00000000       1.00000000       0.60000000  0.04  2       1.00000000  0
  31  1 36 30      90.00000000       3.00000000       0.12400000    2171.00000000       1.00000000       0.60000000  0.04  2       1.00000000  0
  32  1 36 31     102.00000000       3.00000000       0.13600000    2160.00000000       1.00000000       0.60000000  0.04  2       1.00000000  0
  33  1 36 32      30.00000000       3.00000000       0.16200000    2149.00000000       1.00000000       0.60000000  0.04  2       1.00000000  0
  34  1 35 32      72.00000000       3.00000000       0.14700000    2141.00000000       1.00000000       0.60000000  0.04  2       1.00000000  0
  35  1 35 33      30.00000000       3.00000000       0.15700000    2134.00000000       1.00000000       0.60000000  0.04  2       1.00000000  0
  36  1 34 33      72.00000000       3.00000000       0.14700000    2125.00000000       1.00000000       0.60000000  0.04  2       1.00000000  0
  37  1 34 34      30.00000000       3.00000000       0.11500000    2119.00000000       1.00000000       0.60000000  0.04  2       1.00000000  0
  38  1 33 34      60.00000000       3.00000000       0.11700000    2114.00000000       1.00000000       0.60000000  0.04  2       1.00000000  0
  39  1 33 35      72.00000000       3.00000000       0.11100000    2106.00000000       1.00000000       0.60000000  0.04  2       1.00000000  0
  40  1 32 35      30.00000000       3.00000000       0.12000000    2101.00000000       1.00000000       0.60000000  0.04  2       1.00000000  0
  41  1 32 36     102.00000000       3.00000000       0.09900000    2092.00000000       1.00000000       0.60000000  0.04  2       1.00000000  0
  42  1 32 37      90.00000000       3.00000000       0.07300000    2085.00000000       1.00000000       0.60000000  0.04  2       1.00000000  0
  43  1 53 37      90.00000000       3.00000000       0.03700000    2146.00000000       1.00000000       0.60000000  0.04  1       1.00000000  0
  44  1 52 37      72.00000000       3.00000000       0.03800000    2143.00000000       1.00000000       0.60000000  0.04  2       1.00000000  0
  45  1 52 38      30.00000000       3.00000000       0.06000000    2141.00000000       1.00000000       0.60000000  0.04  2       1.00000000  0
  46  1 51 38     102.00000000       3.00000000       0.04800000    2136.00000000       1.00000000       0.60000000  0.04  2       1.00000000  0
  47  1 50 38      60.00000000       3.00000000       0.02400000    2134.00000000       1.00000000       0.60000000  0.04  2       1.00000000  0
  48  1 50 39      30.00000000       3.00000000       0.02900000    2133.00000000       1.00000000       0.60000000  0.04  2       1.00000000  0
  49  1 49 39      90.00000000       3.00000000       0.03200000    2131.00000000       1.00000000       0.60000000  0.04  2       1.00000000  0
  50  1 48 39     102.00000000       3.00000000       0.02800000    2128.00000000       1.00000000       0.60000000  0.04  2       1.00000000  0
  51  1 47 39      60.00000000       3.00000000       0.02400000    2126.00000000       1.00000000       0.60000000  0.04  2       1.00000000  0
  52  1 47 40      30.00000000       3.00000000       0.02900000    2125.00000000       1.00000000       0.60000000  0.04  2       1.00000000  0
  53  1 46 40      90.00000000       3.00000000       0.03300000    2123.00000000       1.00000000       0.60000000  0.04  2       1.00000000  0
  54  1 45 40      30.00000000       3.00000000       0.03800000    2121.00000000       1.00000000       0.60000000  0.04  2       1.00000000  0
  55  1 45 39      60.00000000       3.00000000       0.03200000    2119.00000000       1.00000000       0.60000000  0.04  2       1.00000000  0
  56  1 44 39     102.00000000       3.00000000       0.03800000    2117.00000000       1.00000000       0.60000000  0.04  2       1.00000000  0
  57  1 43 38     102.00000000       3.00000000       0.05100000    2112.00000000       1.00000000       0.60000000  0.04  2       1.00000000  0
  58  1 42 38      90.00000000       3.00000000       0.04700000    2107.00000000       1.00000000       0.60000000  0.04  2       1.00000000  0
  59  1 41 38     102.00000000       3.00000000       0.03700000    2103.00000000       1.00000000       0.60000000  0.04  2       1.00000000  0
  60  1 40 38      30.00000000       3.00000000       0.06300000    2101.00000000       1.00000000       0.60000000  0.04  2       1.00000000  0
  61  1 40 39      60.00000000       3.00000000       0.06300000    2096.00000000       1.00000000       0.60000000  0.04  2       1.00000000  0
  62  1 39 39     102.00000000       3.00000000       0.04900000    2093.00000000       1.00000000       0.60000000  0.04  2       1.00000000  0
  63  1 38 39     102.00000000       3.00000000       0.06900000    2087.00000000       1.00000000       0.60000000  0.04  2       1.00000000  0
  64  1 37 40     102.00000000       3.00000000       0.07700000    2079.00000000       1.00000000       0.60000000  0.04  2       1.00000000  0
  65  1 36 40      60.00000000       3.00000000       0.06300000    2073.00000000       1.00000000       0.60000000  0.04  2       1.00000000  0
  66  1 36 41      30.00000000       3.00000000       0.04500000    2071.00000000       1.00000000       0.60000000  0.04  2       1.00000000  0
  67  1 35 41     102.00000000       3.00000000       0.03700000    2068.00000000       1.00000000       0.60000000  0.04  2       1.00000000  0
  68  1 34 41      90.00000000       3.00000000       0.04300000    2065.00000000       1.00000000       0.60000000  0.04  2       1.00000000  0
  69  1 33 41      90.00000000       3.00000000       0.04800000    2060.00000000       1.00000000       0.60000000  0.04  2       1.00000000  0
  70  1 32 41     102.00000000       3.00000000       0.05400000    2056.00000000       1.00000000       0.60000000  0.04  2       1.00000000  0
  71  1 31 42     114.00000000       3.00000000       0.06500000    2048.00000000       1.00000000       0.60000000  0.04  2       1.00000000  0
  72  1 31 33      90.00000000       3.00000000       0.06700000    2115.00000000       1.00000000       0.60000000  0.04  1       1.00000000  0
  73  1 31 34      90.00000000       3.00000000       0.09100000    2109.00000000       1.00000000       0.60000000  0.04  2       1.00000000  0
  74  1 31 35     102.00000000       3.00000000       0.09100000    2098.00000000       1.00000000       0.60000000  0.04  2       1.00000000  0
  75  1 31 36     102.00000000       3.00000000       0.07100000    2091.00000000       1.00000000       0.60000000  0.04  2       1.00000000  0
  76  1 31 37      90.00000000       3.00000000       0.07300000    2084.00000000       1.00000000       0.60000000  0.04  2       1.00000000  0
  77  1 48 48      90.00000000       3.00000000       0.02100000    2112.00000000       1.00000000       0.60000000  0.04  1       1.00000000  0
  78  1 47 48     102.00000000       3.00000000       0.03100000    2110.00000000       1.00000000       0.60000000  0.04  2       1.00000000  0
  79  1 46 48      30.00000000       3.00000000       0.04500000    2108.00000000       1.00000000       0.60000000  0.04  2       1.00000000  0
  80  1 46 47      60.00000000       3.00000000       0.03300000    2106.00000000       1.00000000       0.60000000  0.04  2       1.00000000  0
  81  1 45 47      90.00000000       3.00000000       0.02900000    2104.00000000       1.00000000       0.60000000  0.04  2       1.00000000  0
  82  1 44 47     102.00000000       3.00000000       0.04200000    2101.00000000       1.00000000       0.60000000  0.04  2       1.00000000  0
  83  1 43 47      90.00000000       3.00000000       0.07500000    2096.00000000       1.00000000       0.60000000  0.04  2       1.00000000  0
  84  1 42 47      90.00000000       3.00000000       0.10300000    2087.00000000       1.00000000       0.60000000  0.04  2       1.00000000  0
  85  1 41 47      60.00000000       3.00000000       0.09200000    2079.00000000       1.00000000       0.60000000  0.04  2       1.00000000  0
  86  1 41 48      30.00000000       3.00000000       0.09500000    2076.00000000       1.00000000       0.60000000  0.04  2       1.00000000  0
  87  1 40 48      90.00000000       3.00000000       0.08700000    2069.00000000       1.00000000       0.60000000  0.04  2       1.00000000  0
  88  1 39 48      90.00000000       3.00000000       0.08300000    2063.00000000       1.00000000       0.60000000  0.04  2       1.00000000  0
  89  1 38 47      90.00000000       3.00000000       0.09400000    2054.00000000       1.00000000       0.60000000  0.04  2       1.00000000  0
  90  1 37 47      90.00000000       3.00000000       0.10200000    2046.00000000       1.00000000       0.60000000  0.04  2       1.00000000  0
  91  1 36 48     102.00000000       3.00000000       0.09300000    2035.00000000       1.00000000       0.60000000  0.04  2       1.00000000  0
  92  1 35 48      30.00000000       3.00000000       0.08100000    2031.00000000       1.00000000       0.60000000  0.04  2       1.00000000  0
  93  1 35 49      60.00000000       3.00000000       0.09900000    2026.00000000       1.00000000       0.60000000  0.04  2       1.00000000  0
  94  1 34 49      72.00000000       3.00000000       0.07700000    2020.00000000       1.00000000       0.60000000  0.04  2       1.00000000  0
  95  1 34 50      30.00000000       3.00000000       0.05700000    2017.00000000       1.00000000       0.60000000  0.04  2       1.00000000  0
  96  1 33 50     114.00000000       3.00000000       0.05600000    2013.00000000       1.00000000       0.60000000  0.04  2       1.00000000  0
  97  1 55 72      90.00000000       3.00000000       0.04400000    2000.00000000       1.00000000       0.60000000  0.04  1       1.00000000  0
  98  1 54 72      90.00000000       3.00000000       0.05000000    1996.00000000       1.00000000       0.60000000  0.04  2       1.00000000  0
  99  1 53 72      90.00000000       3.00000000       0.07500000    1991.00000000       1.00000000       0.60000000  0.04  2       1.00000000  0
  100  1 52 72     102.00000000       3.00000000       0.07600000    1982.00000000       1.00000000       0.60000000  0.04  2       1.00000000  0
  101  1 51 72     102.00000000       3.00000000       0.07400000    1976.00000000       1.00000000       0.60000000  0.04  2       1.00000000  0
  102  1 50 73     102.00000000       3.00000000       0.07400000    1967.00000000       1.00000000       0.60000000  0.04  2       1.00000000  0
  103  1 49 73     102.00000000       3.00000000       0.07100000    1961.00000000       1.00000000       0.60000000  0.04  2       1.00000000  0
  104  1 48 73      30.00000000       3.00000000       0.07200000    1955.00000000       1.00000000       0.60000000  0.04  2       1.00000000  0
  105  1 48 74      60.00000000       3.00000000       0.05600000    1953.00000000       1.00000000       0.60000000  0.04  2       1.00000000  0
  106  1 47 74     102.00000000       3.00000000       0.06000000    1948.00000000       1.00000000       0.60000000  0.04  2       1.00000000  0
  107  1 46 75     102.00000000       3.00000000       0.04800000    1942.00000000       1.00000000       0.60000000  0.04  2       1.00000000  0
  108  1 45 75      30.00000000       3.00000000       0.04300000    1940.00000000       1.00000000       0.60000000  0.04  2       1.00000000  0
  109  1 45 76      72.00000000       3.00000000       0.04900000    1937.00000000       1.00000000       0.60000000  0.04  2       1.00000000  0
  110  1 44 76      30.00000000       3.00000000       0.03900000    1935.00000000       1.00000000       0.60000000  0.04  2       1.00000000  0
  111  1 45 62      90.00000000       3.00000000       0.04200000    2003.00000000       1.00000000       0.60000000  0.04  1       1.00000000  0
  112  1 44 62     102.00000000       3.00000000       0.05600000    1999.00000000       1.00000000       0.60000000  0.04  2       1.00000000  0
  113  1 43 62      30.00000000       3.00000000       0.08100000    1994.00000000       1.00000000       0.60000000  0.04  2       1.00000000  0
  114  1 43 63      60.00000000       3.00000000       0.07100000    1990.00000000       1.00000000       0.60000000  0.04  2       1.00000000  0
  115  1 42 63     102.00000000       3.00000000       0.06800000    1985.00000000       1.00000000       0.60000000  0.04  2       1.00000000  0
  116  1 41 63      90.00000000       3.00000000       0.06800000    1978.00000000       1.00000000       0.60000000  0.04  2       1.00000000  0
  117  1 40 63     102.00000000       3.00000000       0.06800000    1972.00000000       1.00000000       0.60000000  0.04  2       1.00000000  0
  118  1 24 55      60.00000000       3.00000000       0.04400000    2032.00000000       1.00000000       0.60000000  0.04  1       1.00000000  0
  119  1 25 55      30.00000000       3.00000000       0.07800000    2030.00000000       1.00000000       0.60000000  0.04  2       1.00000000  0
  120  1 25 56      60.00000000       3.00000000       0.07100000    2025.00000000       1.00000000       0.60000000  0.04  2       1.00000000  0
  121  1 26 56     102.00000000       3.00000000       0.05100000    2021.00000000       1.00000000       0.60000000  0.04  2       1.00000000  0
  122  1 27 56      90.00000000       3.00000000       0.05400000    2016.00000000       1.00000000       0.60000000  0.04  2       1.00000000  0
  123  1 28 57      90.00000000       3.00000000       0.05600000    2011.00000000       1.00000000       0.60000000  0.04  2       1.00000000  0
  124  1 29 57      90.00000000       3.00000000       0.05600000    2006.00000000       1.00000000       0.60000000  0.04  2       1.00000000  0
  125  1 30 57      90.00000000       3.00000000       0.05000000    2001.00000000       1.00000000       0.60000000  0.04  2       1.00000000  0
  126  1 31 57      90.00000000       3.00000000       0.04800000    1997.00000000       1.00000000       0.60000000  0.04  2       1.00000000  0
  127  1 32 57     102.00000000       3.00000000       0.03800000    1992.00000000       1.00000000       0.60000000  0.04  2       1.00000000  0
  128  1 33 57      72.00000000       3.00000000       0.02200000    1990.00000000       1.00000000       0.60000000  0.04  2       1.00000000  0
  129  1 33 58      30.00000000       3.00000000       0.04900000    1989.00000000       1.00000000       0.60000000  0.04  2       1.00000000  0
  130  1 34 58      72.00000000       3.00000000       0.05900000    1985.00000000       1.00000000       0.60000000  0.04  2       1.00000000  0
  131  1 34 59      30.00000000       3.00000000       0.04300000    1983.00000000       1.00000000       0.60000000  0.04  2       1.00000000  0
  132  1 35 59     102.00000000       3.00000000       0.04300000    1980.00000000       1.00000000       0.60000000  0.04  2       1.00000000  0
  133  1 36 59      90.00000000       3.00000000       0.04500000    1976.00000000       1.00000000       0.60000000  0.04  2       1.00000000  0
  134  1 37 60     114.00000000       3.00000000       0.04900000    1971.00000000       1.00000000       0.60000000  0.04  2       1.00000000  0
  135  1 23 71      90.00000000       3.00000000       0.04200000    2051.00000000       1.00000000       0.60000000  0.04  1       1.00000000  0
  136  1 24 71     102.00000000       3.00000000       0.03100000    2047.00000000       1.00000000       0.60000000  0.04  2       1.00000000  0
  137  1 25 71      90.00000000       3.00000000       0.01600000    2045.00000000       1.00000000       0.60000000  0.04  2       1.00000000  0
  138  1 26 71     102.00000000       3.00000000       0.01000000    2044.00000000       1.00000000       0.60000000  0.04  2       1.00000000  0
  139  1 27 72     102.00000000       3.00000000       0.01200000    2043.00000000       1.00000000       0.60000000  0.04  2       1.00000000  0
  140  1 27 73      30.00000000       3.00000000       0.01500000    2042.00000000       1.00000000       0.60000000  0.04  2       1.00000000  0
  141  1 28 73     102.00000000       3.00000000       0.01200000    2041.00000000       1.00000000       0.60000000  0.04  2       1.00000000  0
  142  1 29 73      90.00000000       3.00000000       0.01100000    2040.00000000       1.00000000       0.60000000  0.04  2       1.00000000  0
  143  1 30 73      90.00000000       3.00000000       0.02200000    2039.00000000       1.00000000       0.60000000  0.04  2       1.00000000  0
  144  1 31 73      90.00000000       3.00000000       0.04400000    2036.00000000       1.00000000       0.60000000  0.04  2       1.00000000  0
  145  1 32 73      90.00000000       3.00000000       0.05600000    2031.00000000       1.00000000       0.60000000  0.04  2       1.00000000  0
  146  1 33 73      90.00000000       3.00000000       0.06000000    2026.00000000       1.00000000       0.60000000  0.04  2       1.00000000  0
  147  1 34 73      30.00000000       3.00000000       0.11400000    2022.00000000       1.00000000       0.60000000  0.04  2       1.00000000  0
  148  1 34 74      60.00000000       3.00000000       0.10000000    2014.00000000       1.00000000       0.60000000  0.04  2       1.00000000  0
  149  1 35 74      90.00000000       3.00000000       0.06700000    2010.00000000       1.00000000       0.60000000  0.04  2       1.00000000  0
  150  1 36 74      30.00000000       3.00000000       0.08600000    2005.00000000       1.00000000       0.60000000  0.04  2       1.00000000  0
  151  1 36 73      60.00000000       3.00000000       0.12700000    2001.00000000       1.00000000       0.60000000  0.04  2       1.00000000  0
  152  1 37 73     102.00000000       3.00000000       0.14100000    1989.00000000       1.00000000       0.60000000  0.04  2       1.00000000  0
  153  1 38 72      90.00000000       3.00000000       0.11800000    1976.00000000       1.00000000       0.60000000  0.04  2       1.00000000  0
  154  1 39 72      90.00000000       3.00000000       0.10000000    1967.00000000       1.00000000       0.60000000  0.04  2       1.00000000  0
  155  1 40 72      90.00000000       3.00000000       0.08300000    1958.00000000       1.00000000       0.60000000  0.04  2       1.00000000  0
  156  1 41 72      90.00000000       3.00000000       0.08700000    1952.00000000       1.00000000       0.60000000  0.04  2       1.00000000  0
  157  1 42 72      30.00000000       3.00000000       0.10000000    1945.00000000       1.00000000       0.60000000  0.04  2       1.00000000  0
  158  1 42 73      30.00000000       3.00000000       0.06700000    1943.00000000       1.00000000       0.60000000  0.04  2       1.00000000  0
  159  1 31 38      90.00000000       3.00000000       0.05600000    2076.00000000       1.00000000       0.60000000  0.04  3       1.00000000  0
  160  1 31 39      90.00000000       3.00000000       0.08300000    2071.00000000       1.00000000       0.60000000  0.04  2       1.00000000  0
  161  1 31 40      90.00000000       3.00000000       0.10000000    2061.00000000       1.00000000       0.60000000  0.04  2       1.00000000  0
  162  1 31 41      90.00000000       3.00000000       0.07600000    2053.00000000       1.00000000       0.60000000  0.04  2       1.00000000  0
  163  1 31 42      72.00000000       3.00000000       0.04500000    2048.00000000       1.00000000       0.60000000  0.04  2       1.00000000  0
  164  1 30 42      30.00000000       3.00000000       0.02000000    2047.00000000       1.00000000       0.60000000  0.04  2       1.00000000  0
  165  1 30 43      90.00000000       3.00000000       0.05300000    2041.00000000       1.00000000       0.60000000  0.04  3       1.00000000  0
  166  1 30 44      60.00000000       3.00000000       0.04200000    2037.00000000       1.00000000       0.60000000  0.04  2       1.00000000  0
  167  1 29 44      30.00000000       3.00000000       0.03800000    2036.00000000       1.00000000       0.60000000  0.04  2       1.00000000  0
  168  1 29 45      90.00000000       3.00000000       0.04700000    2033.00000000       1.00000000       0.60000000  0.04  2       1.00000000  0
  169  1 29 46      90.00000000       3.00000000       0.04700000    2029.00000000       1.00000000       0.60000000  0.04  2       1.00000000  0
  170  1 29 47      30.00000000       3.00000000       0.05700000    2026.00000000       1.00000000       0.60000000  0.04  2       1.00000000  0
  171  1 30 47      60.00000000       3.00000000       0.04000000    2023.00000000       1.00000000       0.60000000  0.04  2       1.00000000  0
  172  1 30 48     102.00000000       3.00000000       0.03200000    2021.00000000       1.00000000       0.60000000  0.04  2       1.00000000  0
  173  1 31 49     114.00000000       3.00000000       0.04500000    2017.00000000       1.00000000       0.60000000  0.04  2       1.00000000  0
  174  1 32 50     114.00000000       3.00000000       0.05300000    2011.00000000       1.00000000       0.60000000  0.04  2       1.00000000  0
  175  1 32 51      90.00000000       3.00000000       0.04200000    2006.00000000       1.00000000       0.60000000  0.04  3       1.00000000  0
  176  1 33 52     102.00000000       3.00000000       0.04900000    2002.00000000       1.00000000       0.60000000  0.04  2       1.00000000  0
  177  1 33 53      30.00000000       3.00000000       0.09400000    1998.00000000       1.00000000       0.60000000  0.04  2       1.00000000  0
  178  1 34 53      72.00000000       3.00000000       0.08500000    1991.00000000       1.00000000       0.60000000  0.04  2       1.00000000  0
  179  1 34 54      60.00000000       3.00000000       0.03600000    1988.00000000       1.00000000       0.60000000  0.04  2       1.00000000  0
  180  1 35 54      30.00000000       3.00000000       0.02700000    1987.00000000       1.00000000       0.60000000  0.04  2       1.00000000  0
  181  1 35 55     102.00000000       3.00000000       0.03000000    1985.00000000       1.00000000       0.60000000  0.04  2       1.00000000  0
  182  1 35 56     102.00000000       3.00000000       0.03300000    1982.00000000       1.00000000       0.60000000  0.04  2       1.00000000  0
  183  1 36 57     114.00000000       3.00000000       0.02400000    1978.00000000       1.00000000       0.60000000  0.04  2       1.00000000  0
  184  1 36 58      90.00000000       3.00000000       0.01700000    1977.00000000       1.00000000       0.60000000  0.04  2       1.00000000  0
  185  1 36 59      60.00000000       3.00000000       0.02500000    1975.00000000       1.00000000       0.60000000  0.04  2       1.00000000  0
  186  1 37 59      30.00000000       3.00000000       0.02100000    1974.00000000       1.00000000       0.60000000  0.04  2       1.00000000  0
  187  1 37 60      72.00000000       3.00000000       0.01500000    1973.00000000       1.00000000       0.60000000  0.04  2       1.00000000  0
  188  1 38 60      30.00000000       3.00000000       0.01000000    1972.00000000       1.00000000       0.60000000  0.04  2       1.00000000  0
  189  1 38 61     102.00000000       3.00000000       0.01000000    1970.00000000       1.00000000       0.60000000  0.04  3       1.00000000  0
  190  1 38 62     102.00000000       3.00000000       0.01200000    1969.00000000       1.00000000       0.60000000  0.04  2       1.00000000  0
  191  1 38 63      30.00000000       3.00000000       0.01800000    1968.00000000       1.00000000       0.60000000  0.04  2       1.00000000  0
  192  1 39 63      60.00000000       3.00000000       0.02200000    1967.00000000       1.00000000       0.60000000  0.04  2       1.00000000  0
  193  1 39 64     120.00000000       3.00000000       0.01700000    1966.00000000       1.00000000       0.60000000  0.04  3       1.00000000  0
  194  1 39 65      60.00000000       3.00000000       0.01900000    1965.00000000       1.00000000       0.60000000  0.04  2       1.00000000  0
  195  1 40 65      30.00000000       3.00000000       0.01000000    1964.00000000       1.00000000       0.60000000  0.04  2       1.00000000  0
  196  1 40 66      90.00000000       3.00000000       0.01300000    1963.00000000       1.00000000       0.60000000  0.04  2       1.00000000  0
  197  1 40 67      90.00000000       3.00000000       0.02200000    1961.00000000       1.00000000       0.60000000  0.04  2       1.00000000  0
  198  1 40 68      90.00000000       3.00000000       0.01700000    1959.00000000       1.00000000       0.60000000  0.04  2       1.00000000  0
  199  1 41 69      90.00000000       3.00000000       0.02100000    1958.00000000       1.00000000       0.60000000  0.04  2       1.00000000  0
  200  1 41 70     114.00000000       3.00000000       0.04300000    1955.00000000       1.00000000       0.60000000  0.04  2       1.00000000  0
  201  1 42 71     102.00000000       3.00000000       0.04400000    1949.00000000       1.00000000       0.60000000  0.04  2       1.00000000  0
  202  1 42 72      90.00000000       3.00000000       0.03800000    1946.00000000       1.00000000       0.60000000  0.04  2       1.00000000  0
  203  1 42 73      30.00000000       3.00000000       0.05000000    1943.00000000       1.00000000       0.60000000  0.04  2       1.00000000  0
  204  1 42 73      30.00000000       3.00000000       0.03300000    1942.00000000       1.00000000       0.60000000  0.04  3       1.00000000  0