# File generated by Flopy version 3.3.5 on 03/04/2022 at 11:18:48.
BEGIN options
  SAVE_FLOWS
END options

BEGIN packages
  DIS6  .\trans.dis  dis
  IC6  .\trans.ic  ic
  MST6  .\trans.mst  mst
  IST6  .\trans.ist  ist
  ADV6  .\trans.adv  adv
  DSP6  .\trans.dsp  dsp
  FMI6  .\trans.fmi  fmi
  CNC6  .\trans.cnc  cnc
  SSM6  .\trans.ssm  ssm
  OBS6  .\trans.obs  obs_0
END packages

