# File generated by Flopy version 3.3.5 on 03/04/2022 at 11:18:48.
BEGIN options
  ZERO_ORDER_DECAY
END options

BEGIN griddata
  porosity
    CONSTANT       0.20000000
  decay
    CONSTANT      -0.00100000
  decay_sorbed
    CONSTANT       0.00000000
  bulk_density
    CONSTANT       4.00000000
  distcoef
    CONSTANT       0.00000000
END griddata

