# File generated by Flopy version 3.3.5 on 03/04/2022 at 11:18:48.
BEGIN options
  TIME_UNITS  days
END options

BEGIN dimensions
  NPER  2
END dimensions

BEGIN perioddata
    1000.00000000  10       1.00000000
    9000.00000000  90       1.00000000
END perioddata

