# File generated by Flopy version 3.3.5 on 03/04/2022 at 11:18:22.
BEGIN options
  XT3D_OFF
END options

BEGIN griddata
  alh
    CONSTANT       1.00000000
  ath1
    CONSTANT       1.00000000
END griddata

