# File generated by Flopy version 3.3.5 on 03/04/2022 at 11:18:22.
BEGIN options
END options

BEGIN griddata
  porosity
    CONSTANT       0.37000000
  bulk_density
    CONSTANT       1.58700000
END griddata

