# File generated by Flopy version 3.3.5 on 03/04/2022 at 11:18:01.
BEGIN options
  SAVE_FLOWS
  SAVE_SPECIFIC_DISCHARGE
  SAVE_SATURATION
END options

BEGIN griddata
  icelltype
    CONSTANT  0
  k
    CONSTANT       0.00800000
  k33
    CONSTANT       0.00800000
END griddata

