# File generated by Flopy version 3.3.5 on 03/04/2022 at 11:18:16.
BEGIN options
  XT3D
  SAVE_SPECIFIC_DISCHARGE
  SAVE_SATURATION
END options

BEGIN griddata
  icelltype
    CONSTANT  0
  k
    CONSTANT       0.01250000
END griddata

