# File generated by Flopy version 3.3.5 on 03/04/2022 at 11:18:16.
BEGIN options
END options

BEGIN dimensions
  MAXBOUND  480
END dimensions

BEGIN period  1
  1 58       0.00000000
  1 116       0.00000000
  1 174       0.00000000
  1 232       0.00000000
  1 290       0.00000000
  1 348       0.00000000
  1 406       0.00000000
  1 464       0.00000000
  1 522       0.00000000
  1 580       0.00000000
  1 638       0.00000000
  1 695       0.00000000
  2 58       0.00000000
  2 116       0.00000000
  2 174       0.00000000
  2 232       0.00000000
  2 290       0.00000000
  2 348       0.00000000
  2 406       0.00000000
  2 464       0.00000000
  2 522       0.00000000
  2 580       0.00000000
  2 638       0.00000000
  2 695       0.00000000
  3 58       0.00000000
  3 116       0.00000000
  3 174       0.00000000
  3 232       0.00000000
  3 290       0.00000000
  3 348       0.00000000
  3 406       0.00000000
  3 464       0.00000000
  3 522       0.00000000
  3 580       0.00000000
  3 638       0.00000000
  3 695       0.00000000
  4 58       0.00000000
  4 116       0.00000000
  4 174       0.00000000
  4 232       0.00000000
  4 290       0.00000000
  4 348       0.00000000
  4 406       0.00000000
  4 464       0.00000000
  4 522       0.00000000
  4 580       0.00000000
  4 638       0.00000000
  4 695       0.00000000
  5 58       0.00000000
  5 116       0.00000000
  5 174       0.00000000
  5 232       0.00000000
  5 290       0.00000000
  5 348       0.00000000
  5 406       0.00000000
  5 464       0.00000000
  5 522       0.00000000
  5 580       0.00000000
  5 638       0.00000000
  5 695       0.00000000
  6 58       0.00000000
  6 116       0.00000000
  6 174       0.00000000
  6 232       0.00000000
  6 290       0.00000000
  6 348       0.00000000
  6 406       0.00000000
  6 464       0.00000000
  6 522       0.00000000
  6 580       0.00000000
  6 638       0.00000000
  6 695       0.00000000
  7 58       0.00000000
  7 116       0.00000000
  7 174       0.00000000
  7 232       0.00000000
  7 290       0.00000000
  7 348       0.00000000
  7 406       0.00000000
  7 464       0.00000000
  7 522       0.00000000
  7 580       0.00000000
  7 638       0.00000000
  7 695       0.00000000
  8 58       0.00000000
  8 116       0.00000000
  8 174       0.00000000
  8 232       0.00000000
  8 290       0.00000000
  8 348       0.00000000
  8 406       0.00000000
  8 464       0.00000000
  8 522       0.00000000
  8 580       0.00000000
  8 638       0.00000000
  8 695       0.00000000
  9 58       0.00000000
  9 116       0.00000000
  9 174       0.00000000
  9 232       0.00000000
  9 290       0.00000000
  9 348       0.00000000
  9 406       0.00000000
  9 464       0.00000000
  9 522       0.00000000
  9 580       0.00000000
  9 638       0.00000000
  9 695       0.00000000
  10 58       0.00000000
  10 116       0.00000000
  10 174       0.00000000
  10 232       0.00000000
  10 290       0.00000000
  10 348       0.00000000
  10 406       0.00000000
  10 464       0.00000000
  10 522       0.00000000
  10 580       0.00000000
  10 638       0.00000000
  10 695       0.00000000
  11 58       0.00000000
  11 116       0.00000000
  11 174       0.00000000
  11 232       0.00000000
  11 290       0.00000000
  11 348       0.00000000
  11 406       0.00000000
  11 464       0.00000000
  11 522       0.00000000
  11 580       0.00000000
  11 638       0.00000000
  11 695       0.00000000
  12 58       0.00000000
  12 116       0.00000000
  12 174       0.00000000
  12 232       0.00000000
  12 290       0.00000000
  12 348       0.00000000
  12 406       0.00000000
  12 464       0.00000000
  12 522       0.00000000
  12 580       0.00000000
  12 638       0.00000000
  12 695       0.00000000
  13 58       0.00000000
  13 116       0.00000000
  13 174       0.00000000
  13 232       0.00000000
  13 290       0.00000000
  13 348       0.00000000
  13 406       0.00000000
  13 464       0.00000000
  13 522       0.00000000
  13 580       0.00000000
  13 638       0.00000000
  13 695       0.00000000
  14 58       0.00000000
  14 116       0.00000000
  14 174       0.00000000
  14 232       0.00000000
  14 290       0.00000000
  14 348       0.00000000
  14 406       0.00000000
  14 464       0.00000000
  14 522       0.00000000
  14 580       0.00000000
  14 638       0.00000000
  14 695       0.00000000
  15 58       0.00000000
  15 116       0.00000000
  15 174       0.00000000
  15 232       0.00000000
  15 290       0.00000000
  15 348       0.00000000
  15 406       0.00000000
  15 464       0.00000000
  15 522       0.00000000
  15 580       0.00000000
  15 638       0.00000000
  15 695       0.00000000
  16 58       0.00000000
  16 116       0.00000000
  16 174       0.00000000
  16 232       0.00000000
  16 290       0.00000000
  16 348       0.00000000
  16 406       0.00000000
  16 464       0.00000000
  16 522       0.00000000
  16 580       0.00000000
  16 638       0.00000000
  16 695       0.00000000
  17 58       0.00000000
  17 116       0.00000000
  17 174       0.00000000
  17 232       0.00000000
  17 290       0.00000000
  17 348       0.00000000
  17 406       0.00000000
  17 464       0.00000000
  17 522       0.00000000
  17 580       0.00000000
  17 638       0.00000000
  17 695       0.00000000
  18 58       0.00000000
  18 116       0.00000000
  18 174       0.00000000
  18 232       0.00000000
  18 290       0.00000000
  18 348       0.00000000
  18 406       0.00000000
  18 464       0.00000000
  18 522       0.00000000
  18 580       0.00000000
  18 638       0.00000000
  18 695       0.00000000
  19 58       0.00000000
  19 116       0.00000000
  19 174       0.00000000
  19 232       0.00000000
  19 290       0.00000000
  19 348       0.00000000
  19 406       0.00000000
  19 464       0.00000000
  19 522       0.00000000
  19 580       0.00000000
  19 638       0.00000000
  19 695       0.00000000
  20 58       0.00000000
  20 116       0.00000000
  20 174       0.00000000
  20 232       0.00000000
  20 290       0.00000000
  20 348       0.00000000
  20 406       0.00000000
  20 464       0.00000000
  20 522       0.00000000
  20 580       0.00000000
  20 638       0.00000000
  20 695       0.00000000
  21 58       0.00000000
  21 116       0.00000000
  21 174       0.00000000
  21 232       0.00000000
  21 290       0.00000000
  21 348       0.00000000
  21 406       0.00000000
  21 464       0.00000000
  21 522       0.00000000
  21 580       0.00000000
  21 638       0.00000000
  21 695       0.00000000
  22 58       0.00000000
  22 116       0.00000000
  22 174       0.00000000
  22 232       0.00000000
  22 290       0.00000000
  22 348       0.00000000
  22 406       0.00000000
  22 464       0.00000000
  22 522       0.00000000
  22 580       0.00000000
  22 638       0.00000000
  22 695       0.00000000
  23 58       0.00000000
  23 116       0.00000000
  23 174       0.00000000
  23 232       0.00000000
  23 290       0.00000000
  23 348       0.00000000
  23 406       0.00000000
  23 464       0.00000000
  23 522       0.00000000
  23 580       0.00000000
  23 638       0.00000000
  23 695       0.00000000
  24 58       0.00000000
  24 116       0.00000000
  24 174       0.00000000
  24 232       0.00000000
  24 290       0.00000000
  24 348       0.00000000
  24 406       0.00000000
  24 464       0.00000000
  24 522       0.00000000
  24 580       0.00000000
  24 638       0.00000000
  24 695       0.00000000
  25 58       0.00000000
  25 116       0.00000000
  25 174       0.00000000
  25 232       0.00000000
  25 290       0.00000000
  25 348       0.00000000
  25 406       0.00000000
  25 464       0.00000000
  25 522       0.00000000
  25 580       0.00000000
  25 638       0.00000000
  25 695       0.00000000
  26 58       0.00000000
  26 116       0.00000000
  26 174       0.00000000
  26 232       0.00000000
  26 290       0.00000000
  26 348       0.00000000
  26 406       0.00000000
  26 464       0.00000000
  26 522       0.00000000
  26 580       0.00000000
  26 638       0.00000000
  26 695       0.00000000
  27 58       0.00000000
  27 116       0.00000000
  27 174       0.00000000
  27 232       0.00000000
  27 290       0.00000000
  27 348       0.00000000
  27 406       0.00000000
  27 464       0.00000000
  27 522       0.00000000
  27 580       0.00000000
  27 638       0.00000000
  27 695       0.00000000
  28 58       0.00000000
  28 116       0.00000000
  28 174       0.00000000
  28 232       0.00000000
  28 290       0.00000000
  28 348       0.00000000
  28 406       0.00000000
  28 464       0.00000000
  28 522       0.00000000
  28 580       0.00000000
  28 638       0.00000000
  28 695       0.00000000
  29 58       0.00000000
  29 116       0.00000000
  29 174       0.00000000
  29 232       0.00000000
  29 290       0.00000000
  29 348       0.00000000
  29 406       0.00000000
  29 464       0.00000000
  29 522       0.00000000
  29 580       0.00000000
  29 638       0.00000000
  29 695       0.00000000
  30 58       0.00000000
  30 116       0.00000000
  30 174       0.00000000
  30 232       0.00000000
  30 290       0.00000000
  30 348       0.00000000
  30 406       0.00000000
  30 464       0.00000000
  30 522       0.00000000
  30 580       0.00000000
  30 638       0.00000000
  30 695       0.00000000
  31 58       0.00000000
  31 116       0.00000000
  31 174       0.00000000
  31 232       0.00000000
  31 290       0.00000000
  31 348       0.00000000
  31 406       0.00000000
  31 464       0.00000000
  31 522       0.00000000
  31 580       0.00000000
  31 638       0.00000000
  31 695       0.00000000
  32 58       0.00000000
  32 116       0.00000000
  32 174       0.00000000
  32 232       0.00000000
  32 290       0.00000000
  32 348       0.00000000
  32 406       0.00000000
  32 464       0.00000000
  32 522       0.00000000
  32 580       0.00000000
  32 638       0.00000000
  32 695       0.00000000
  33 58       0.00000000
  33 116       0.00000000
  33 174       0.00000000
  33 232       0.00000000
  33 290       0.00000000
  33 348       0.00000000
  33 406       0.00000000
  33 464       0.00000000
  33 522       0.00000000
  33 580       0.00000000
  33 638       0.00000000
  33 695       0.00000000
  34 58       0.00000000
  34 116       0.00000000
  34 174       0.00000000
  34 232       0.00000000
  34 290       0.00000000
  34 348       0.00000000
  34 406       0.00000000
  34 464       0.00000000
  34 522       0.00000000
  34 580       0.00000000
  34 638       0.00000000
  34 695       0.00000000
  35 58       0.00000000
  35 116       0.00000000
  35 174       0.00000000
  35 232       0.00000000
  35 290       0.00000000
  35 348       0.00000000
  35 406       0.00000000
  35 464       0.00000000
  35 522       0.00000000
  35 580       0.00000000
  35 638       0.00000000
  35 695       0.00000000
  36 58       0.00000000
  36 116       0.00000000
  36 174       0.00000000
  36 232       0.00000000
  36 290       0.00000000
  36 348       0.00000000
  36 406       0.00000000
  36 464       0.00000000
  36 522       0.00000000
  36 580       0.00000000
  36 638       0.00000000
  36 695       0.00000000
  37 58       0.00000000
  37 116       0.00000000
  37 174       0.00000000
  37 232       0.00000000
  37 290       0.00000000
  37 348       0.00000000
  37 406       0.00000000
  37 464       0.00000000
  37 522       0.00000000
  37 580       0.00000000
  37 638       0.00000000
  37 695       0.00000000
  38 58       0.00000000
  38 116       0.00000000
  38 174       0.00000000
  38 232       0.00000000
  38 290       0.00000000
  38 348       0.00000000
  38 406       0.00000000
  38 464       0.00000000
  38 522       0.00000000
  38 580       0.00000000
  38 638       0.00000000
  38 695       0.00000000
  39 58       0.00000000
  39 116       0.00000000
  39 174       0.00000000
  39 232       0.00000000
  39 290       0.00000000
  39 348       0.00000000
  39 406       0.00000000
  39 464       0.00000000
  39 522       0.00000000
  39 580       0.00000000
  39 638       0.00000000
  39 695       0.00000000
  40 58       0.00000000
  40 116       0.00000000
  40 174       0.00000000
  40 232       0.00000000
  40 290       0.00000000
  40 348       0.00000000
  40 406       0.00000000
  40 464       0.00000000
  40 522       0.00000000
  40 580       0.00000000
  40 638       0.00000000
  40 695       0.00000000
END period  1

