# File generated by Flopy version 3.3.5 on 03/04/2022 at 11:18:16.
BEGIN options
END options

BEGIN dimensions
  MAXBOUND  480
END dimensions

BEGIN period  1
  1 1  6.25000000E-04
  1 59  6.25000000E-04
  1 117  6.25000000E-04
  1 175  6.25000000E-04
  1 233  6.25000000E-04
  1 291  6.25000000E-04
  1 349  6.25000000E-04
  1 407  6.25000000E-04
  1 465  6.25000000E-04
  1 523  6.25000000E-04
  1 581  6.25000000E-04
  1 639  6.25000000E-04
  2 1  6.25000000E-04
  2 59  6.25000000E-04
  2 117  6.25000000E-04
  2 175  6.25000000E-04
  2 233  6.25000000E-04
  2 291  6.25000000E-04
  2 349  6.25000000E-04
  2 407  6.25000000E-04
  2 465  6.25000000E-04
  2 523  6.25000000E-04
  2 581  6.25000000E-04
  2 639  6.25000000E-04
  3 1  6.25000000E-04
  3 59  6.25000000E-04
  3 117  6.25000000E-04
  3 175  6.25000000E-04
  3 233  6.25000000E-04
  3 291  6.25000000E-04
  3 349  6.25000000E-04
  3 407  6.25000000E-04
  3 465  6.25000000E-04
  3 523  6.25000000E-04
  3 581  6.25000000E-04
  3 639  6.25000000E-04
  4 1  6.25000000E-04
  4 59  6.25000000E-04
  4 117  6.25000000E-04
  4 175  6.25000000E-04
  4 233  6.25000000E-04
  4 291  6.25000000E-04
  4 349  6.25000000E-04
  4 407  6.25000000E-04
  4 465  6.25000000E-04
  4 523  6.25000000E-04
  4 581  6.25000000E-04
  4 639  6.25000000E-04
  5 1  6.25000000E-04
  5 59  6.25000000E-04
  5 117  6.25000000E-04
  5 175  6.25000000E-04
  5 233  6.25000000E-04
  5 291  6.25000000E-04
  5 349  6.25000000E-04
  5 407  6.25000000E-04
  5 465  6.25000000E-04
  5 523  6.25000000E-04
  5 581  6.25000000E-04
  5 639  6.25000000E-04
  6 1  6.25000000E-04
  6 59  6.25000000E-04
  6 117  6.25000000E-04
  6 175  6.25000000E-04
  6 233  6.25000000E-04
  6 291  6.25000000E-04
  6 349  6.25000000E-04
  6 407  6.25000000E-04
  6 465  6.25000000E-04
  6 523  6.25000000E-04
  6 581  6.25000000E-04
  6 639  6.25000000E-04
  7 1  6.25000000E-04
  7 59  6.25000000E-04
  7 117  6.25000000E-04
  7 175  6.25000000E-04
  7 233  6.25000000E-04
  7 291  6.25000000E-04
  7 349  6.25000000E-04
  7 407  6.25000000E-04
  7 465  6.25000000E-04
  7 523  6.25000000E-04
  7 581  6.25000000E-04
  7 639  6.25000000E-04
  8 1  6.25000000E-04
  8 59  6.25000000E-04
  8 117  6.25000000E-04
  8 175  6.25000000E-04
  8 233  6.25000000E-04
  8 291  6.25000000E-04
  8 349  6.25000000E-04
  8 407  6.25000000E-04
  8 465  6.25000000E-04
  8 523  6.25000000E-04
  8 581  6.25000000E-04
  8 639  6.25000000E-04
  9 1  6.25000000E-04
  9 59  6.25000000E-04
  9 117  6.25000000E-04
  9 175  6.25000000E-04
  9 233  6.25000000E-04
  9 291  6.25000000E-04
  9 349  6.25000000E-04
  9 407  6.25000000E-04
  9 465  6.25000000E-04
  9 523  6.25000000E-04
  9 581  6.25000000E-04
  9 639  6.25000000E-04
  10 1  6.25000000E-04
  10 59  6.25000000E-04
  10 117  6.25000000E-04
  10 175  6.25000000E-04
  10 233  6.25000000E-04
  10 291  6.25000000E-04
  10 349  6.25000000E-04
  10 407  6.25000000E-04
  10 465  6.25000000E-04
  10 523  6.25000000E-04
  10 581  6.25000000E-04
  10 639  6.25000000E-04
  11 1  6.25000000E-04
  11 59  6.25000000E-04
  11 117  6.25000000E-04
  11 175  6.25000000E-04
  11 233  6.25000000E-04
  11 291  6.25000000E-04
  11 349  6.25000000E-04
  11 407  6.25000000E-04
  11 465  6.25000000E-04
  11 523  6.25000000E-04
  11 581  6.25000000E-04
  11 639  6.25000000E-04
  12 1  6.25000000E-04
  12 59  6.25000000E-04
  12 117  6.25000000E-04
  12 175  6.25000000E-04
  12 233  6.25000000E-04
  12 291  6.25000000E-04
  12 349  6.25000000E-04
  12 407  6.25000000E-04
  12 465  6.25000000E-04
  12 523  6.25000000E-04
  12 581  6.25000000E-04
  12 639  6.25000000E-04
  13 1  6.25000000E-04
  13 59  6.25000000E-04
  13 117  6.25000000E-04
  13 175  6.25000000E-04
  13 233  6.25000000E-04
  13 291  6.25000000E-04
  13 349  6.25000000E-04
  13 407  6.25000000E-04
  13 465  6.25000000E-04
  13 523  6.25000000E-04
  13 581  6.25000000E-04
  13 639  6.25000000E-04
  14 1  6.25000000E-04
  14 59  6.25000000E-04
  14 117  6.25000000E-04
  14 175  6.25000000E-04
  14 233  6.25000000E-04
  14 291  6.25000000E-04
  14 349  6.25000000E-04
  14 407  6.25000000E-04
  14 465  6.25000000E-04
  14 523  6.25000000E-04
  14 581  6.25000000E-04
  14 639  6.25000000E-04
  15 1  6.25000000E-04
  15 59  6.25000000E-04
  15 117  6.25000000E-04
  15 175  6.25000000E-04
  15 233  6.25000000E-04
  15 291  6.25000000E-04
  15 349  6.25000000E-04
  15 407  6.25000000E-04
  15 465  6.25000000E-04
  15 523  6.25000000E-04
  15 581  6.25000000E-04
  15 639  6.25000000E-04
  16 1  6.25000000E-04
  16 59  6.25000000E-04
  16 117  6.25000000E-04
  16 175  6.25000000E-04
  16 233  6.25000000E-04
  16 291  6.25000000E-04
  16 349  6.25000000E-04
  16 407  6.25000000E-04
  16 465  6.25000000E-04
  16 523  6.25000000E-04
  16 581  6.25000000E-04
  16 639  6.25000000E-04
  17 1  6.25000000E-04
  17 59  6.25000000E-04
  17 117  6.25000000E-04
  17 175  6.25000000E-04
  17 233  6.25000000E-04
  17 291  6.25000000E-04
  17 349  6.25000000E-04
  17 407  6.25000000E-04
  17 465  6.25000000E-04
  17 523  6.25000000E-04
  17 581  6.25000000E-04
  17 639  6.25000000E-04
  18 1  6.25000000E-04
  18 59  6.25000000E-04
  18 117  6.25000000E-04
  18 175  6.25000000E-04
  18 233  6.25000000E-04
  18 291  6.25000000E-04
  18 349  6.25000000E-04
  18 407  6.25000000E-04
  18 465  6.25000000E-04
  18 523  6.25000000E-04
  18 581  6.25000000E-04
  18 639  6.25000000E-04
  19 1  6.25000000E-04
  19 59  6.25000000E-04
  19 117  6.25000000E-04
  19 175  6.25000000E-04
  19 233  6.25000000E-04
  19 291  6.25000000E-04
  19 349  6.25000000E-04
  19 407  6.25000000E-04
  19 465  6.25000000E-04
  19 523  6.25000000E-04
  19 581  6.25000000E-04
  19 639  6.25000000E-04
  20 1  6.25000000E-04
  20 59  6.25000000E-04
  20 117  6.25000000E-04
  20 175  6.25000000E-04
  20 233  6.25000000E-04
  20 291  6.25000000E-04
  20 349  6.25000000E-04
  20 407  6.25000000E-04
  20 465  6.25000000E-04
  20 523  6.25000000E-04
  20 581  6.25000000E-04
  20 639  6.25000000E-04
  21 1  6.25000000E-04
  21 59  6.25000000E-04
  21 117  6.25000000E-04
  21 175  6.25000000E-04
  21 233  6.25000000E-04
  21 291  6.25000000E-04
  21 349  6.25000000E-04
  21 407  6.25000000E-04
  21 465  6.25000000E-04
  21 523  6.25000000E-04
  21 581  6.25000000E-04
  21 639  6.25000000E-04
  22 1  6.25000000E-04
  22 59  6.25000000E-04
  22 117  6.25000000E-04
  22 175  6.25000000E-04
  22 233  6.25000000E-04
  22 291  6.25000000E-04
  22 349  6.25000000E-04
  22 407  6.25000000E-04
  22 465  6.25000000E-04
  22 523  6.25000000E-04
  22 581  6.25000000E-04
  22 639  6.25000000E-04
  23 1  6.25000000E-04
  23 59  6.25000000E-04
  23 117  6.25000000E-04
  23 175  6.25000000E-04
  23 233  6.25000000E-04
  23 291  6.25000000E-04
  23 349  6.25000000E-04
  23 407  6.25000000E-04
  23 465  6.25000000E-04
  23 523  6.25000000E-04
  23 581  6.25000000E-04
  23 639  6.25000000E-04
  24 1  6.25000000E-04
  24 59  6.25000000E-04
  24 117  6.25000000E-04
  24 175  6.25000000E-04
  24 233  6.25000000E-04
  24 291  6.25000000E-04
  24 349  6.25000000E-04
  24 407  6.25000000E-04
  24 465  6.25000000E-04
  24 523  6.25000000E-04
  24 581  6.25000000E-04
  24 639  6.25000000E-04
  25 1  6.25000000E-04
  25 59  6.25000000E-04
  25 117  6.25000000E-04
  25 175  6.25000000E-04
  25 233  6.25000000E-04
  25 291  6.25000000E-04
  25 349  6.25000000E-04
  25 407  6.25000000E-04
  25 465  6.25000000E-04
  25 523  6.25000000E-04
  25 581  6.25000000E-04
  25 639  6.25000000E-04
  26 1  6.25000000E-04
  26 59  6.25000000E-04
  26 117  6.25000000E-04
  26 175  6.25000000E-04
  26 233  6.25000000E-04
  26 291  6.25000000E-04
  26 349  6.25000000E-04
  26 407  6.25000000E-04
  26 465  6.25000000E-04
  26 523  6.25000000E-04
  26 581  6.25000000E-04
  26 639  6.25000000E-04
  27 1  6.25000000E-04
  27 59  6.25000000E-04
  27 117  6.25000000E-04
  27 175  6.25000000E-04
  27 233  6.25000000E-04
  27 291  6.25000000E-04
  27 349  6.25000000E-04
  27 407  6.25000000E-04
  27 465  6.25000000E-04
  27 523  6.25000000E-04
  27 581  6.25000000E-04
  27 639  6.25000000E-04
  28 1  6.25000000E-04
  28 59  6.25000000E-04
  28 117  6.25000000E-04
  28 175  6.25000000E-04
  28 233  6.25000000E-04
  28 291  6.25000000E-04
  28 349  6.25000000E-04
  28 407  6.25000000E-04
  28 465  6.25000000E-04
  28 523  6.25000000E-04
  28 581  6.25000000E-04
  28 639  6.25000000E-04
  29 1  6.25000000E-04
  29 59  6.25000000E-04
  29 117  6.25000000E-04
  29 175  6.25000000E-04
  29 233  6.25000000E-04
  29 291  6.25000000E-04
  29 349  6.25000000E-04
  29 407  6.25000000E-04
  29 465  6.25000000E-04
  29 523  6.25000000E-04
  29 581  6.25000000E-04
  29 639  6.25000000E-04
  30 1  6.25000000E-04
  30 59  6.25000000E-04
  30 117  6.25000000E-04
  30 175  6.25000000E-04
  30 233  6.25000000E-04
  30 291  6.25000000E-04
  30 349  6.25000000E-04
  30 407  6.25000000E-04
  30 465  6.25000000E-04
  30 523  6.25000000E-04
  30 581  6.25000000E-04
  30 639  6.25000000E-04
  31 1  6.25000000E-04
  31 59  6.25000000E-04
  31 117  6.25000000E-04
  31 175  6.25000000E-04
  31 233  6.25000000E-04
  31 291  6.25000000E-04
  31 349  6.25000000E-04
  31 407  6.25000000E-04
  31 465  6.25000000E-04
  31 523  6.25000000E-04
  31 581  6.25000000E-04
  31 639  6.25000000E-04
  32 1  6.25000000E-04
  32 59  6.25000000E-04
  32 117  6.25000000E-04
  32 175  6.25000000E-04
  32 233  6.25000000E-04
  32 291  6.25000000E-04
  32 349  6.25000000E-04
  32 407  6.25000000E-04
  32 465  6.25000000E-04
  32 523  6.25000000E-04
  32 581  6.25000000E-04
  32 639  6.25000000E-04
  33 1  6.25000000E-04
  33 59  6.25000000E-04
  33 117  6.25000000E-04
  33 175  6.25000000E-04
  33 233  6.25000000E-04
  33 291  6.25000000E-04
  33 349  6.25000000E-04
  33 407  6.25000000E-04
  33 465  6.25000000E-04
  33 523  6.25000000E-04
  33 581  6.25000000E-04
  33 639  6.25000000E-04
  34 1  6.25000000E-04
  34 59  6.25000000E-04
  34 117  6.25000000E-04
  34 175  6.25000000E-04
  34 233  6.25000000E-04
  34 291  6.25000000E-04
  34 349  6.25000000E-04
  34 407  6.25000000E-04
  34 465  6.25000000E-04
  34 523  6.25000000E-04
  34 581  6.25000000E-04
  34 639  6.25000000E-04
  35 1  6.25000000E-04
  35 59  6.25000000E-04
  35 117  6.25000000E-04
  35 175  6.25000000E-04
  35 233  6.25000000E-04
  35 291  6.25000000E-04
  35 349  6.25000000E-04
  35 407  6.25000000E-04
  35 465  6.25000000E-04
  35 523  6.25000000E-04
  35 581  6.25000000E-04
  35 639  6.25000000E-04
  36 1  6.25000000E-04
  36 59  6.25000000E-04
  36 117  6.25000000E-04
  36 175  6.25000000E-04
  36 233  6.25000000E-04
  36 291  6.25000000E-04
  36 349  6.25000000E-04
  36 407  6.25000000E-04
  36 465  6.25000000E-04
  36 523  6.25000000E-04
  36 581  6.25000000E-04
  36 639  6.25000000E-04
  37 1  6.25000000E-04
  37 59  6.25000000E-04
  37 117  6.25000000E-04
  37 175  6.25000000E-04
  37 233  6.25000000E-04
  37 291  6.25000000E-04
  37 349  6.25000000E-04
  37 407  6.25000000E-04
  37 465  6.25000000E-04
  37 523  6.25000000E-04
  37 581  6.25000000E-04
  37 639  6.25000000E-04
  38 1  6.25000000E-04
  38 59  6.25000000E-04
  38 117  6.25000000E-04
  38 175  6.25000000E-04
  38 233  6.25000000E-04
  38 291  6.25000000E-04
  38 349  6.25000000E-04
  38 407  6.25000000E-04
  38 465  6.25000000E-04
  38 523  6.25000000E-04
  38 581  6.25000000E-04
  38 639  6.25000000E-04
  39 1  6.25000000E-04
  39 59  6.25000000E-04
  39 117  6.25000000E-04
  39 175  6.25000000E-04
  39 233  6.25000000E-04
  39 291  6.25000000E-04
  39 349  6.25000000E-04
  39 407  6.25000000E-04
  39 465  6.25000000E-04
  39 523  6.25000000E-04
  39 581  6.25000000E-04
  39 639  6.25000000E-04
  40 1  6.25000000E-04
  40 59  6.25000000E-04
  40 117  6.25000000E-04
  40 175  6.25000000E-04
  40 233  6.25000000E-04
  40 291  6.25000000E-04
  40 349  6.25000000E-04
  40 407  6.25000000E-04
  40 465  6.25000000E-04
  40 523  6.25000000E-04
  40 581  6.25000000E-04
  40 639  6.25000000E-04
END period  1

