# File generated by Flopy version 3.3.5 on 03/04/2022 at 11:18:16.
BEGIN options
  SAVE_FLOWS
END options

BEGIN packages
  DISV6  .\flow.disv  disv
  NPF6  .\flow.npf  npf
  IC6  .\flow.ic  ic
  CHD6  .\flow.chd  chd_0
  WEL6  .\flow.wel  wel_0
  OC6  .\flow.oc  oc
END packages

