# File generated by Flopy version 3.3.5 on 03/04/2022 at 11:13:47.
BEGIN options
  DIGITS  10
  PRINT_INPUT
END options

BEGIN continuous  FILEOUT  gwf_obs.csv
  h1_1_2  HEAD  1 1 2
END continuous  FILEOUT  gwf_obs.csv

