# File generated by Flopy version 3.3.5 on 03/04/2022 at 11:13:47.
BEGIN options
  TIME_UNITS  days
END options

BEGIN dimensions
  NPER  1
END dimensions

BEGIN perioddata
    1000.00000000  100       1.05000000
END perioddata

