# File generated by Flopy version 3.3.5 on 03/04/2022 at 11:13:47.
BEGIN options
  DIGITS  10
  PRINT_INPUT
END options

BEGIN continuous  FILEOUT  ex-gwf-csub-p02c.csub.obs.csv
  tcomp  interbed-compaction  ib1
  sk  sk  ib1
  qtop  delay-flowtop  1
  qbot  delay-flowbot  1
  H0001  delay-head  1  1
  H0002  delay-head  1  2
  H0003  delay-head  1  3
  H0004  delay-head  1  4
  H0005  delay-head  1  5
  H0006  delay-head  1  6
  H0007  delay-head  1  7
  H0008  delay-head  1  8
  H0009  delay-head  1  9
  H0010  delay-head  1  10
  H0011  delay-head  1  11
  H0012  delay-head  1  12
  H0013  delay-head  1  13
  H0014  delay-head  1  14
  H0015  delay-head  1  15
  H0016  delay-head  1  16
  H0017  delay-head  1  17
  H0018  delay-head  1  18
  H0019  delay-head  1  19
  H0020  delay-head  1  20
  H0021  delay-head  1  21
  H0022  delay-head  1  22
  H0023  delay-head  1  23
  H0024  delay-head  1  24
  H0025  delay-head  1  25
  H0026  delay-head  1  26
  H0027  delay-head  1  27
  H0028  delay-head  1  28
  H0029  delay-head  1  29
  H0030  delay-head  1  30
  H0031  delay-head  1  31
  H0032  delay-head  1  32
  H0033  delay-head  1  33
  H0034  delay-head  1  34
  H0035  delay-head  1  35
  H0036  delay-head  1  36
  H0037  delay-head  1  37
  H0038  delay-head  1  38
  H0039  delay-head  1  39
  H0040  delay-head  1  40
  H0041  delay-head  1  41
  H0042  delay-head  1  42
  H0043  delay-head  1  43
  H0044  delay-head  1  44
  H0045  delay-head  1  45
  H0046  delay-head  1  46
  H0047  delay-head  1  47
  H0048  delay-head  1  48
  H0049  delay-head  1  49
  H0050  delay-head  1  50
  H0051  delay-head  1  51
  H0052  delay-head  1  52
  H0053  delay-head  1  53
  H0054  delay-head  1  54
  H0055  delay-head  1  55
  H0056  delay-head  1  56
  H0057  delay-head  1  57
  H0058  delay-head  1  58
  H0059  delay-head  1  59
  H0060  delay-head  1  60
  H0061  delay-head  1  61
  H0062  delay-head  1  62
  H0063  delay-head  1  63
  H0064  delay-head  1  64
  H0065  delay-head  1  65
  H0066  delay-head  1  66
  H0067  delay-head  1  67
  H0068  delay-head  1  68
  H0069  delay-head  1  69
  H0070  delay-head  1  70
  H0071  delay-head  1  71
  H0072  delay-head  1  72
  H0073  delay-head  1  73
  H0074  delay-head  1  74
  H0075  delay-head  1  75
  H0076  delay-head  1  76
  H0077  delay-head  1  77
  H0078  delay-head  1  78
  H0079  delay-head  1  79
  H0080  delay-head  1  80
  H0081  delay-head  1  81
  H0082  delay-head  1  82
  H0083  delay-head  1  83
  H0084  delay-head  1  84
  H0085  delay-head  1  85
  H0086  delay-head  1  86
  H0087  delay-head  1  87
  H0088  delay-head  1  88
  H0089  delay-head  1  89
  H0090  delay-head  1  90
  H0091  delay-head  1  91
  H0092  delay-head  1  92
  H0093  delay-head  1  93
  H0094  delay-head  1  94
  H0095  delay-head  1  95
  H0096  delay-head  1  96
  H0097  delay-head  1  97
  H0098  delay-head  1  98
  H0099  delay-head  1  99
  H0100  delay-head  1  100
  H0101  delay-head  1  101
  H0102  delay-head  1  102
  H0103  delay-head  1  103
  H0104  delay-head  1  104
  H0105  delay-head  1  105
  H0106  delay-head  1  106
  H0107  delay-head  1  107
  H0108  delay-head  1  108
  H0109  delay-head  1  109
  H0110  delay-head  1  110
  H0111  delay-head  1  111
  H0112  delay-head  1  112
  H0113  delay-head  1  113
  H0114  delay-head  1  114
  H0115  delay-head  1  115
  H0116  delay-head  1  116
  H0117  delay-head  1  117
  H0118  delay-head  1  118
  H0119  delay-head  1  119
  H0120  delay-head  1  120
  H0121  delay-head  1  121
  H0122  delay-head  1  122
  H0123  delay-head  1  123
  H0124  delay-head  1  124
  H0125  delay-head  1  125
  H0126  delay-head  1  126
  H0127  delay-head  1  127
  H0128  delay-head  1  128
  H0129  delay-head  1  129
  H0130  delay-head  1  130
  H0131  delay-head  1  131
  H0132  delay-head  1  132
  H0133  delay-head  1  133
  H0134  delay-head  1  134
  H0135  delay-head  1  135
  H0136  delay-head  1  136
  H0137  delay-head  1  137
  H0138  delay-head  1  138
  H0139  delay-head  1  139
  H0140  delay-head  1  140
  H0141  delay-head  1  141
  H0142  delay-head  1  142
  H0143  delay-head  1  143
  H0144  delay-head  1  144
  H0145  delay-head  1  145
  H0146  delay-head  1  146
  H0147  delay-head  1  147
  H0148  delay-head  1  148
  H0149  delay-head  1  149
  H0150  delay-head  1  150
  H0151  delay-head  1  151
  H0152  delay-head  1  152
  H0153  delay-head  1  153
  H0154  delay-head  1  154
  H0155  delay-head  1  155
  H0156  delay-head  1  156
  H0157  delay-head  1  157
  H0158  delay-head  1  158
  H0159  delay-head  1  159
  H0160  delay-head  1  160
  H0161  delay-head  1  161
  H0162  delay-head  1  162
  H0163  delay-head  1  163
  H0164  delay-head  1  164
  H0165  delay-head  1  165
  H0166  delay-head  1  166
  H0167  delay-head  1  167
  H0168  delay-head  1  168
  H0169  delay-head  1  169
  H0170  delay-head  1  170
  H0171  delay-head  1  171
  H0172  delay-head  1  172
  H0173  delay-head  1  173
  H0174  delay-head  1  174
  H0175  delay-head  1  175
  H0176  delay-head  1  176
  H0177  delay-head  1  177
  H0178  delay-head  1  178
  H0179  delay-head  1  179
  H0180  delay-head  1  180
  H0181  delay-head  1  181
  H0182  delay-head  1  182
  H0183  delay-head  1  183
  H0184  delay-head  1  184
  H0185  delay-head  1  185
  H0186  delay-head  1  186
  H0187  delay-head  1  187
  H0188  delay-head  1  188
  H0189  delay-head  1  189
  H0190  delay-head  1  190
  H0191  delay-head  1  191
  H0192  delay-head  1  192
  H0193  delay-head  1  193
  H0194  delay-head  1  194
  H0195  delay-head  1  195
  H0196  delay-head  1  196
  H0197  delay-head  1  197
  H0198  delay-head  1  198
  H0199  delay-head  1  199
  H0200  delay-head  1  200
  H0201  delay-head  1  201
  H0202  delay-head  1  202
  H0203  delay-head  1  203
  H0204  delay-head  1  204
  H0205  delay-head  1  205
  H0206  delay-head  1  206
  H0207  delay-head  1  207
  H0208  delay-head  1  208
  H0209  delay-head  1  209
  H0210  delay-head  1  210
  H0211  delay-head  1  211
  H0212  delay-head  1  212
  H0213  delay-head  1  213
  H0214  delay-head  1  214
  H0215  delay-head  1  215
  H0216  delay-head  1  216
  H0217  delay-head  1  217
  H0218  delay-head  1  218
  H0219  delay-head  1  219
  H0220  delay-head  1  220
  H0221  delay-head  1  221
  H0222  delay-head  1  222
  H0223  delay-head  1  223
  H0224  delay-head  1  224
  H0225  delay-head  1  225
  H0226  delay-head  1  226
  H0227  delay-head  1  227
  H0228  delay-head  1  228
  H0229  delay-head  1  229
  H0230  delay-head  1  230
  H0231  delay-head  1  231
  H0232  delay-head  1  232
  H0233  delay-head  1  233
  H0234  delay-head  1  234
  H0235  delay-head  1  235
  H0236  delay-head  1  236
  H0237  delay-head  1  237
  H0238  delay-head  1  238
  H0239  delay-head  1  239
  H0240  delay-head  1  240
  H0241  delay-head  1  241
  H0242  delay-head  1  242
  H0243  delay-head  1  243
  H0244  delay-head  1  244
  H0245  delay-head  1  245
  H0246  delay-head  1  246
  H0247  delay-head  1  247
  H0248  delay-head  1  248
  H0249  delay-head  1  249
  H0250  delay-head  1  250
  H0251  delay-head  1  251
  H0252  delay-head  1  252
  H0253  delay-head  1  253
  H0254  delay-head  1  254
  H0255  delay-head  1  255
  H0256  delay-head  1  256
  H0257  delay-head  1  257
  H0258  delay-head  1  258
  H0259  delay-head  1  259
  H0260  delay-head  1  260
  H0261  delay-head  1  261
  H0262  delay-head  1  262
  H0263  delay-head  1  263
  H0264  delay-head  1  264
  H0265  delay-head  1  265
  H0266  delay-head  1  266
  H0267  delay-head  1  267
  H0268  delay-head  1  268
  H0269  delay-head  1  269
  H0270  delay-head  1  270
  H0271  delay-head  1  271
  H0272  delay-head  1  272
  H0273  delay-head  1  273
  H0274  delay-head  1  274
  H0275  delay-head  1  275
  H0276  delay-head  1  276
  H0277  delay-head  1  277
  H0278  delay-head  1  278
  H0279  delay-head  1  279
  H0280  delay-head  1  280
  H0281  delay-head  1  281
  H0282  delay-head  1  282
  H0283  delay-head  1  283
  H0284  delay-head  1  284
  H0285  delay-head  1  285
  H0286  delay-head  1  286
  H0287  delay-head  1  287
  H0288  delay-head  1  288
  H0289  delay-head  1  289
  H0290  delay-head  1  290
  H0291  delay-head  1  291
  H0292  delay-head  1  292
  H0293  delay-head  1  293
  H0294  delay-head  1  294
  H0295  delay-head  1  295
  H0296  delay-head  1  296
  H0297  delay-head  1  297
  H0298  delay-head  1  298
  H0299  delay-head  1  299
  H0300  delay-head  1  300
  H0301  delay-head  1  301
  H0302  delay-head  1  302
  H0303  delay-head  1  303
  H0304  delay-head  1  304
  H0305  delay-head  1  305
  H0306  delay-head  1  306
  H0307  delay-head  1  307
  H0308  delay-head  1  308
  H0309  delay-head  1  309
  H0310  delay-head  1  310
  H0311  delay-head  1  311
  H0312  delay-head  1  312
  H0313  delay-head  1  313
  H0314  delay-head  1  314
  H0315  delay-head  1  315
  H0316  delay-head  1  316
  H0317  delay-head  1  317
  H0318  delay-head  1  318
  H0319  delay-head  1  319
  H0320  delay-head  1  320
  H0321  delay-head  1  321
  H0322  delay-head  1  322
  H0323  delay-head  1  323
  H0324  delay-head  1  324
  H0325  delay-head  1  325
  H0326  delay-head  1  326
  H0327  delay-head  1  327
  H0328  delay-head  1  328
  H0329  delay-head  1  329
  H0330  delay-head  1  330
  H0331  delay-head  1  331
  H0332  delay-head  1  332
  H0333  delay-head  1  333
  H0334  delay-head  1  334
  H0335  delay-head  1  335
  H0336  delay-head  1  336
  H0337  delay-head  1  337
  H0338  delay-head  1  338
  H0339  delay-head  1  339
  H0340  delay-head  1  340
  H0341  delay-head  1  341
  H0342  delay-head  1  342
  H0343  delay-head  1  343
  H0344  delay-head  1  344
  H0345  delay-head  1  345
  H0346  delay-head  1  346
  H0347  delay-head  1  347
  H0348  delay-head  1  348
  H0349  delay-head  1  349
  H0350  delay-head  1  350
  H0351  delay-head  1  351
  H0352  delay-head  1  352
  H0353  delay-head  1  353
  H0354  delay-head  1  354
  H0355  delay-head  1  355
  H0356  delay-head  1  356
  H0357  delay-head  1  357
  H0358  delay-head  1  358
  H0359  delay-head  1  359
  H0360  delay-head  1  360
  H0361  delay-head  1  361
  H0362  delay-head  1  362
  H0363  delay-head  1  363
  H0364  delay-head  1  364
  H0365  delay-head  1  365
  H0366  delay-head  1  366
  H0367  delay-head  1  367
  H0368  delay-head  1  368
  H0369  delay-head  1  369
  H0370  delay-head  1  370
  H0371  delay-head  1  371
  H0372  delay-head  1  372
  H0373  delay-head  1  373
  H0374  delay-head  1  374
  H0375  delay-head  1  375
  H0376  delay-head  1  376
  H0377  delay-head  1  377
  H0378  delay-head  1  378
  H0379  delay-head  1  379
  H0380  delay-head  1  380
  H0381  delay-head  1  381
  H0382  delay-head  1  382
  H0383  delay-head  1  383
  H0384  delay-head  1  384
  H0385  delay-head  1  385
  H0386  delay-head  1  386
  H0387  delay-head  1  387
  H0388  delay-head  1  388
  H0389  delay-head  1  389
  H0390  delay-head  1  390
  H0391  delay-head  1  391
  H0392  delay-head  1  392
  H0393  delay-head  1  393
  H0394  delay-head  1  394
  H0395  delay-head  1  395
  H0396  delay-head  1  396
  H0397  delay-head  1  397
  H0398  delay-head  1  398
  H0399  delay-head  1  399
  H0400  delay-head  1  400
  H0401  delay-head  1  401
  H0402  delay-head  1  402
  H0403  delay-head  1  403
  H0404  delay-head  1  404
  H0405  delay-head  1  405
  H0406  delay-head  1  406
  H0407  delay-head  1  407
  H0408  delay-head  1  408
  H0409  delay-head  1  409
  H0410  delay-head  1  410
  H0411  delay-head  1  411
  H0412  delay-head  1  412
  H0413  delay-head  1  413
  H0414  delay-head  1  414
  H0415  delay-head  1  415
  H0416  delay-head  1  416
  H0417  delay-head  1  417
  H0418  delay-head  1  418
  H0419  delay-head  1  419
  H0420  delay-head  1  420
  H0421  delay-head  1  421
  H0422  delay-head  1  422
  H0423  delay-head  1  423
  H0424  delay-head  1  424
  H0425  delay-head  1  425
  H0426  delay-head  1  426
  H0427  delay-head  1  427
  H0428  delay-head  1  428
  H0429  delay-head  1  429
  H0430  delay-head  1  430
  H0431  delay-head  1  431
  H0432  delay-head  1  432
  H0433  delay-head  1  433
  H0434  delay-head  1  434
  H0435  delay-head  1  435
  H0436  delay-head  1  436
  H0437  delay-head  1  437
  H0438  delay-head  1  438
  H0439  delay-head  1  439
  H0440  delay-head  1  440
  H0441  delay-head  1  441
  H0442  delay-head  1  442
  H0443  delay-head  1  443
  H0444  delay-head  1  444
  H0445  delay-head  1  445
  H0446  delay-head  1  446
  H0447  delay-head  1  447
  H0448  delay-head  1  448
  H0449  delay-head  1  449
  H0450  delay-head  1  450
  H0451  delay-head  1  451
  H0452  delay-head  1  452
  H0453  delay-head  1  453
  H0454  delay-head  1  454
  H0455  delay-head  1  455
  H0456  delay-head  1  456
  H0457  delay-head  1  457
  H0458  delay-head  1  458
  H0459  delay-head  1  459
  H0460  delay-head  1  460
  H0461  delay-head  1  461
  H0462  delay-head  1  462
  H0463  delay-head  1  463
  H0464  delay-head  1  464
  H0465  delay-head  1  465
  H0466  delay-head  1  466
  H0467  delay-head  1  467
  H0468  delay-head  1  468
  H0469  delay-head  1  469
  H0470  delay-head  1  470
  H0471  delay-head  1  471
  H0472  delay-head  1  472
  H0473  delay-head  1  473
  H0474  delay-head  1  474
  H0475  delay-head  1  475
  H0476  delay-head  1  476
  H0477  delay-head  1  477
  H0478  delay-head  1  478
  H0479  delay-head  1  479
  H0480  delay-head  1  480
  H0481  delay-head  1  481
  H0482  delay-head  1  482
  H0483  delay-head  1  483
  H0484  delay-head  1  484
  H0485  delay-head  1  485
  H0486  delay-head  1  486
  H0487  delay-head  1  487
  H0488  delay-head  1  488
  H0489  delay-head  1  489
  H0490  delay-head  1  490
  H0491  delay-head  1  491
  H0492  delay-head  1  492
  H0493  delay-head  1  493
  H0494  delay-head  1  494
  H0495  delay-head  1  495
  H0496  delay-head  1  496
  H0497  delay-head  1  497
  H0498  delay-head  1  498
  H0499  delay-head  1  499
  H0500  delay-head  1  500
  H0501  delay-head  1  501
  H0502  delay-head  1  502
  H0503  delay-head  1  503
  H0504  delay-head  1  504
  H0505  delay-head  1  505
  H0506  delay-head  1  506
  H0507  delay-head  1  507
  H0508  delay-head  1  508
  H0509  delay-head  1  509
  H0510  delay-head  1  510
  H0511  delay-head  1  511
  H0512  delay-head  1  512
  H0513  delay-head  1  513
  H0514  delay-head  1  514
  H0515  delay-head  1  515
  H0516  delay-head  1  516
  H0517  delay-head  1  517
  H0518  delay-head  1  518
  H0519  delay-head  1  519
  H0520  delay-head  1  520
  H0521  delay-head  1  521
  H0522  delay-head  1  522
  H0523  delay-head  1  523
  H0524  delay-head  1  524
  H0525  delay-head  1  525
  H0526  delay-head  1  526
  H0527  delay-head  1  527
  H0528  delay-head  1  528
  H0529  delay-head  1  529
  H0530  delay-head  1  530
  H0531  delay-head  1  531
  H0532  delay-head  1  532
  H0533  delay-head  1  533
  H0534  delay-head  1  534
  H0535  delay-head  1  535
  H0536  delay-head  1  536
  H0537  delay-head  1  537
  H0538  delay-head  1  538
  H0539  delay-head  1  539
  H0540  delay-head  1  540
  H0541  delay-head  1  541
  H0542  delay-head  1  542
  H0543  delay-head  1  543
  H0544  delay-head  1  544
  H0545  delay-head  1  545
  H0546  delay-head  1  546
  H0547  delay-head  1  547
  H0548  delay-head  1  548
  H0549  delay-head  1  549
  H0550  delay-head  1  550
  H0551  delay-head  1  551
  H0552  delay-head  1  552
  H0553  delay-head  1  553
  H0554  delay-head  1  554
  H0555  delay-head  1  555
  H0556  delay-head  1  556
  H0557  delay-head  1  557
  H0558  delay-head  1  558
  H0559  delay-head  1  559
  H0560  delay-head  1  560
  H0561  delay-head  1  561
  H0562  delay-head  1  562
  H0563  delay-head  1  563
  H0564  delay-head  1  564
  H0565  delay-head  1  565
  H0566  delay-head  1  566
  H0567  delay-head  1  567
  H0568  delay-head  1  568
  H0569  delay-head  1  569
  H0570  delay-head  1  570
  H0571  delay-head  1  571
  H0572  delay-head  1  572
  H0573  delay-head  1  573
  H0574  delay-head  1  574
  H0575  delay-head  1  575
  H0576  delay-head  1  576
  H0577  delay-head  1  577
  H0578  delay-head  1  578
  H0579  delay-head  1  579
  H0580  delay-head  1  580
  H0581  delay-head  1  581
  H0582  delay-head  1  582
  H0583  delay-head  1  583
  H0584  delay-head  1  584
  H0585  delay-head  1  585
  H0586  delay-head  1  586
  H0587  delay-head  1  587
  H0588  delay-head  1  588
  H0589  delay-head  1  589
  H0590  delay-head  1  590
  H0591  delay-head  1  591
  H0592  delay-head  1  592
  H0593  delay-head  1  593
  H0594  delay-head  1  594
  H0595  delay-head  1  595
  H0596  delay-head  1  596
  H0597  delay-head  1  597
  H0598  delay-head  1  598
  H0599  delay-head  1  599
  H0600  delay-head  1  600
  H0601  delay-head  1  601
  H0602  delay-head  1  602
  H0603  delay-head  1  603
  H0604  delay-head  1  604
  H0605  delay-head  1  605
  H0606  delay-head  1  606
  H0607  delay-head  1  607
  H0608  delay-head  1  608
  H0609  delay-head  1  609
  H0610  delay-head  1  610
  H0611  delay-head  1  611
  H0612  delay-head  1  612
  H0613  delay-head  1  613
  H0614  delay-head  1  614
  H0615  delay-head  1  615
  H0616  delay-head  1  616
  H0617  delay-head  1  617
  H0618  delay-head  1  618
  H0619  delay-head  1  619
  H0620  delay-head  1  620
  H0621  delay-head  1  621
  H0622  delay-head  1  622
  H0623  delay-head  1  623
  H0624  delay-head  1  624
  H0625  delay-head  1  625
  H0626  delay-head  1  626
  H0627  delay-head  1  627
  H0628  delay-head  1  628
  H0629  delay-head  1  629
  H0630  delay-head  1  630
  H0631  delay-head  1  631
  H0632  delay-head  1  632
  H0633  delay-head  1  633
  H0634  delay-head  1  634
  H0635  delay-head  1  635
  H0636  delay-head  1  636
  H0637  delay-head  1  637
  H0638  delay-head  1  638
  H0639  delay-head  1  639
  H0640  delay-head  1  640
  H0641  delay-head  1  641
  H0642  delay-head  1  642
  H0643  delay-head  1  643
  H0644  delay-head  1  644
  H0645  delay-head  1  645
  H0646  delay-head  1  646
  H0647  delay-head  1  647
  H0648  delay-head  1  648
  H0649  delay-head  1  649
  H0650  delay-head  1  650
  H0651  delay-head  1  651
  H0652  delay-head  1  652
  H0653  delay-head  1  653
  H0654  delay-head  1  654
  H0655  delay-head  1  655
  H0656  delay-head  1  656
  H0657  delay-head  1  657
  H0658  delay-head  1  658
  H0659  delay-head  1  659
  H0660  delay-head  1  660
  H0661  delay-head  1  661
  H0662  delay-head  1  662
  H0663  delay-head  1  663
  H0664  delay-head  1  664
  H0665  delay-head  1  665
  H0666  delay-head  1  666
  H0667  delay-head  1  667
  H0668  delay-head  1  668
  H0669  delay-head  1  669
  H0670  delay-head  1  670
  H0671  delay-head  1  671
  H0672  delay-head  1  672
  H0673  delay-head  1  673
  H0674  delay-head  1  674
  H0675  delay-head  1  675
  H0676  delay-head  1  676
  H0677  delay-head  1  677
  H0678  delay-head  1  678
  H0679  delay-head  1  679
  H0680  delay-head  1  680
  H0681  delay-head  1  681
  H0682  delay-head  1  682
  H0683  delay-head  1  683
  H0684  delay-head  1  684
  H0685  delay-head  1  685
  H0686  delay-head  1  686
  H0687  delay-head  1  687
  H0688  delay-head  1  688
  H0689  delay-head  1  689
  H0690  delay-head  1  690
  H0691  delay-head  1  691
  H0692  delay-head  1  692
  H0693  delay-head  1  693
  H0694  delay-head  1  694
  H0695  delay-head  1  695
  H0696  delay-head  1  696
  H0697  delay-head  1  697
  H0698  delay-head  1  698
  H0699  delay-head  1  699
  H0700  delay-head  1  700
  H0701  delay-head  1  701
  H0702  delay-head  1  702
  H0703  delay-head  1  703
  H0704  delay-head  1  704
  H0705  delay-head  1  705
  H0706  delay-head  1  706
  H0707  delay-head  1  707
  H0708  delay-head  1  708
  H0709  delay-head  1  709
  H0710  delay-head  1  710
  H0711  delay-head  1  711
  H0712  delay-head  1  712
  H0713  delay-head  1  713
  H0714  delay-head  1  714
  H0715  delay-head  1  715
  H0716  delay-head  1  716
  H0717  delay-head  1  717
  H0718  delay-head  1  718
  H0719  delay-head  1  719
  H0720  delay-head  1  720
  H0721  delay-head  1  721
  H0722  delay-head  1  722
  H0723  delay-head  1  723
  H0724  delay-head  1  724
  H0725  delay-head  1  725
  H0726  delay-head  1  726
  H0727  delay-head  1  727
  H0728  delay-head  1  728
  H0729  delay-head  1  729
  H0730  delay-head  1  730
  H0731  delay-head  1  731
  H0732  delay-head  1  732
  H0733  delay-head  1  733
  H0734  delay-head  1  734
  H0735  delay-head  1  735
  H0736  delay-head  1  736
  H0737  delay-head  1  737
  H0738  delay-head  1  738
  H0739  delay-head  1  739
  H0740  delay-head  1  740
  H0741  delay-head  1  741
  H0742  delay-head  1  742
  H0743  delay-head  1  743
  H0744  delay-head  1  744
  H0745  delay-head  1  745
  H0746  delay-head  1  746
  H0747  delay-head  1  747
  H0748  delay-head  1  748
  H0749  delay-head  1  749
  H0750  delay-head  1  750
  H0751  delay-head  1  751
  H0752  delay-head  1  752
  H0753  delay-head  1  753
  H0754  delay-head  1  754
  H0755  delay-head  1  755
  H0756  delay-head  1  756
  H0757  delay-head  1  757
  H0758  delay-head  1  758
  H0759  delay-head  1  759
  H0760  delay-head  1  760
  H0761  delay-head  1  761
  H0762  delay-head  1  762
  H0763  delay-head  1  763
  H0764  delay-head  1  764
  H0765  delay-head  1  765
  H0766  delay-head  1  766
  H0767  delay-head  1  767
  H0768  delay-head  1  768
  H0769  delay-head  1  769
  H0770  delay-head  1  770
  H0771  delay-head  1  771
  H0772  delay-head  1  772
  H0773  delay-head  1  773
  H0774  delay-head  1  774
  H0775  delay-head  1  775
  H0776  delay-head  1  776
  H0777  delay-head  1  777
  H0778  delay-head  1  778
  H0779  delay-head  1  779
  H0780  delay-head  1  780
  H0781  delay-head  1  781
  H0782  delay-head  1  782
  H0783  delay-head  1  783
  H0784  delay-head  1  784
  H0785  delay-head  1  785
  H0786  delay-head  1  786
  H0787  delay-head  1  787
  H0788  delay-head  1  788
  H0789  delay-head  1  789
  H0790  delay-head  1  790
  H0791  delay-head  1  791
  H0792  delay-head  1  792
  H0793  delay-head  1  793
  H0794  delay-head  1  794
  H0795  delay-head  1  795
  H0796  delay-head  1  796
  H0797  delay-head  1  797
  H0798  delay-head  1  798
  H0799  delay-head  1  799
  H0800  delay-head  1  800
  H0801  delay-head  1  801
  H0802  delay-head  1  802
  H0803  delay-head  1  803
  H0804  delay-head  1  804
  H0805  delay-head  1  805
  H0806  delay-head  1  806
  H0807  delay-head  1  807
  H0808  delay-head  1  808
  H0809  delay-head  1  809
  H0810  delay-head  1  810
  H0811  delay-head  1  811
  H0812  delay-head  1  812
  H0813  delay-head  1  813
  H0814  delay-head  1  814
  H0815  delay-head  1  815
  H0816  delay-head  1  816
  H0817  delay-head  1  817
  H0818  delay-head  1  818
  H0819  delay-head  1  819
  H0820  delay-head  1  820
  H0821  delay-head  1  821
  H0822  delay-head  1  822
  H0823  delay-head  1  823
  H0824  delay-head  1  824
  H0825  delay-head  1  825
  H0826  delay-head  1  826
  H0827  delay-head  1  827
  H0828  delay-head  1  828
  H0829  delay-head  1  829
  H0830  delay-head  1  830
  H0831  delay-head  1  831
  H0832  delay-head  1  832
  H0833  delay-head  1  833
  H0834  delay-head  1  834
  H0835  delay-head  1  835
  H0836  delay-head  1  836
  H0837  delay-head  1  837
  H0838  delay-head  1  838
  H0839  delay-head  1  839
  H0840  delay-head  1  840
  H0841  delay-head  1  841
  H0842  delay-head  1  842
  H0843  delay-head  1  843
  H0844  delay-head  1  844
  H0845  delay-head  1  845
  H0846  delay-head  1  846
  H0847  delay-head  1  847
  H0848  delay-head  1  848
  H0849  delay-head  1  849
  H0850  delay-head  1  850
  H0851  delay-head  1  851
  H0852  delay-head  1  852
  H0853  delay-head  1  853
  H0854  delay-head  1  854
  H0855  delay-head  1  855
  H0856  delay-head  1  856
  H0857  delay-head  1  857
  H0858  delay-head  1  858
  H0859  delay-head  1  859
  H0860  delay-head  1  860
  H0861  delay-head  1  861
  H0862  delay-head  1  862
  H0863  delay-head  1  863
  H0864  delay-head  1  864
  H0865  delay-head  1  865
  H0866  delay-head  1  866
  H0867  delay-head  1  867
  H0868  delay-head  1  868
  H0869  delay-head  1  869
  H0870  delay-head  1  870
  H0871  delay-head  1  871
  H0872  delay-head  1  872
  H0873  delay-head  1  873
  H0874  delay-head  1  874
  H0875  delay-head  1  875
  H0876  delay-head  1  876
  H0877  delay-head  1  877
  H0878  delay-head  1  878
  H0879  delay-head  1  879
  H0880  delay-head  1  880
  H0881  delay-head  1  881
  H0882  delay-head  1  882
  H0883  delay-head  1  883
  H0884  delay-head  1  884
  H0885  delay-head  1  885
  H0886  delay-head  1  886
  H0887  delay-head  1  887
  H0888  delay-head  1  888
  H0889  delay-head  1  889
  H0890  delay-head  1  890
  H0891  delay-head  1  891
  H0892  delay-head  1  892
  H0893  delay-head  1  893
  H0894  delay-head  1  894
  H0895  delay-head  1  895
  H0896  delay-head  1  896
  H0897  delay-head  1  897
  H0898  delay-head  1  898
  H0899  delay-head  1  899
  H0900  delay-head  1  900
  H0901  delay-head  1  901
  H0902  delay-head  1  902
  H0903  delay-head  1  903
  H0904  delay-head  1  904
  H0905  delay-head  1  905
  H0906  delay-head  1  906
  H0907  delay-head  1  907
  H0908  delay-head  1  908
  H0909  delay-head  1  909
  H0910  delay-head  1  910
  H0911  delay-head  1  911
  H0912  delay-head  1  912
  H0913  delay-head  1  913
  H0914  delay-head  1  914
  H0915  delay-head  1  915
  H0916  delay-head  1  916
  H0917  delay-head  1  917
  H0918  delay-head  1  918
  H0919  delay-head  1  919
  H0920  delay-head  1  920
  H0921  delay-head  1  921
  H0922  delay-head  1  922
  H0923  delay-head  1  923
  H0924  delay-head  1  924
  H0925  delay-head  1  925
  H0926  delay-head  1  926
  H0927  delay-head  1  927
  H0928  delay-head  1  928
  H0929  delay-head  1  929
  H0930  delay-head  1  930
  H0931  delay-head  1  931
  H0932  delay-head  1  932
  H0933  delay-head  1  933
  H0934  delay-head  1  934
  H0935  delay-head  1  935
  H0936  delay-head  1  936
  H0937  delay-head  1  937
  H0938  delay-head  1  938
  H0939  delay-head  1  939
  H0940  delay-head  1  940
  H0941  delay-head  1  941
  H0942  delay-head  1  942
  H0943  delay-head  1  943
  H0944  delay-head  1  944
  H0945  delay-head  1  945
  H0946  delay-head  1  946
  H0947  delay-head  1  947
  H0948  delay-head  1  948
  H0949  delay-head  1  949
  H0950  delay-head  1  950
  H0951  delay-head  1  951
  H0952  delay-head  1  952
  H0953  delay-head  1  953
  H0954  delay-head  1  954
  H0955  delay-head  1  955
  H0956  delay-head  1  956
  H0957  delay-head  1  957
  H0958  delay-head  1  958
  H0959  delay-head  1  959
  H0960  delay-head  1  960
  H0961  delay-head  1  961
  H0962  delay-head  1  962
  H0963  delay-head  1  963
  H0964  delay-head  1  964
  H0965  delay-head  1  965
  H0966  delay-head  1  966
  H0967  delay-head  1  967
  H0968  delay-head  1  968
  H0969  delay-head  1  969
  H0970  delay-head  1  970
  H0971  delay-head  1  971
  H0972  delay-head  1  972
  H0973  delay-head  1  973
  H0974  delay-head  1  974
  H0975  delay-head  1  975
  H0976  delay-head  1  976
  H0977  delay-head  1  977
  H0978  delay-head  1  978
  H0979  delay-head  1  979
  H0980  delay-head  1  980
  H0981  delay-head  1  981
  H0982  delay-head  1  982
  H0983  delay-head  1  983
  H0984  delay-head  1  984
  H0985  delay-head  1  985
  H0986  delay-head  1  986
  H0987  delay-head  1  987
  H0988  delay-head  1  988
  H0989  delay-head  1  989
  H0990  delay-head  1  990
  H0991  delay-head  1  991
  H0992  delay-head  1  992
  H0993  delay-head  1  993
  H0994  delay-head  1  994
  H0995  delay-head  1  995
  H0996  delay-head  1  996
  H0997  delay-head  1  997
  H0998  delay-head  1  998
  H0999  delay-head  1  999
  H1000  delay-head  1  1000
  H1001  delay-head  1  1001
  est  delay-estress  1  1
  esm  delay-estress  1  502
  esb  delay-estress  1  1001
  gs  gstress-cell  1 1 2
  es  estress-cell  1 1 2
END continuous  FILEOUT  ex-gwf-csub-p02c.csub.obs.csv

