# File generated by Flopy version 3.3.5 on 03/04/2022 at 11:18:59.
BEGIN options
  TIME_UNITS  days
END options

BEGIN dimensions
  NPER  1
END dimensions

BEGIN perioddata
   10000.00000000  1000       1.00000000
END perioddata

