# File generated by Flopy version 3.3.5 on 03/04/2022 at 11:19:00.
BEGIN options
  SCHEME  tvd
END options

