# File generated by Flopy version 3.3.5 on 03/04/2022 at 11:14:43.
BEGIN options
  LENGTH_UNITS  meters
END options

BEGIN dimensions
  NLAY  1
  NROW  80
  NCOL  80
END dimensions

BEGIN griddata
  delr
    CONSTANT     100.00000000
  delc
    CONSTANT     100.00000000
  top
    CONSTANT     200.00000000
  botm
    INTERNAL  FACTOR  1.0
        34.92000000      35.48000000      36.05000000      36.62000000      37.19000000      37.76000000      38.33000000      38.90000000      39.48000000      40.06000000      40.64000000      41.22000000      41.80000000      42.38000000      42.96000000      43.54000000      44.13000000      44.71000000      45.30000000      45.89000000      46.47000000      47.06000000      47.65000000      48.24000000      48.82000000      49.41000000      50.00000000      50.59000000      51.18000000      51.76000000      52.35000000      52.94000000      53.53000000      54.11000000      54.70000000      55.29000000      55.87000000      56.46000000      57.04000000      57.62000000      58.20000000      58.78000000      59.36000000      59.94000000      60.52000000      61.10000000      61.67000000      62.24000000      62.81000000      63.38000000      63.95000000      64.52000000      65.08000000      65.65000000      66.21000000      66.77000000      67.32000000      67.88000000      68.43000000      68.98000000      69.53000000      70.08000000      70.62000000      71.16000000      71.70000000      72.23000000      72.77000000      73.30000000      73.82000000      74.35000000      74.87000000      75.39000000      75.90000000      76.41000000      76.92000000      77.42000000      77.93000000      78.42000000      78.92000000      79.41000000
        35.93000000      36.46000000      36.98000000      37.48000000      37.97000000      38.46000000      38.94000000      39.41000000      39.88000000      40.36000000      40.84000000      41.33000000      41.83000000      42.34000000      42.87000000      43.41000000      43.97000000      44.54000000      45.14000000      45.74000000      46.36000000      46.99000000      47.63000000      48.27000000      48.92000000      49.56000000      50.20000000      50.83000000      51.45000000      52.05000000      52.64000000      53.22000000      53.78000000      54.32000000      54.85000000      55.37000000      55.87000000      56.36000000      56.84000000      57.32000000      57.80000000      58.28000000      58.77000000      59.26000000      59.76000000      60.28000000      60.80000000      61.35000000      61.90000000      62.47000000      63.06000000      63.65000000      64.26000000      64.87000000      65.49000000      66.10000000      66.72000000      67.32000000      67.92000000      68.51000000      69.08000000      69.64000000      70.18000000      70.70000000      71.20000000      71.69000000      72.16000000      72.61000000      73.05000000      73.48000000      73.90000000      74.32000000      74.73000000      75.15000000      75.57000000      76.00000000      76.44000000      76.89000000      77.35000000      77.82000000
        36.98000000      37.47000000      37.94000000      38.38000000      38.80000000      39.19000000      39.57000000      39.95000000      40.31000000      40.69000000      41.07000000      41.46000000      41.88000000      42.32000000      42.79000000      43.29000000      43.82000000      44.39000000      44.99000000      45.61000000      46.26000000      46.93000000      47.62000000      48.32000000      49.02000000      49.71000000      50.39000000      51.06000000      51.71000000      52.34000000      52.93000000      53.49000000      54.02000000      54.52000000      54.99000000      55.43000000      55.85000000      56.24000000      56.63000000      57.00000000      57.38000000      57.76000000      58.14000000      58.55000000      58.98000000      59.43000000      59.91000000      60.42000000      60.96000000      61.53000000      62.13000000      62.75000000      63.39000000      64.05000000      64.72000000      65.39000000      66.06000000      66.72000000      67.36000000      67.98000000      68.58000000      69.15000000      69.68000000      70.19000000      70.65000000      71.09000000      71.49000000      71.86000000      72.22000000      72.55000000      72.87000000      73.19000000      73.50000000      73.82000000      74.16000000      74.51000000      74.88000000      75.28000000      75.70000000      76.15000000
        38.06000000      38.53000000      38.94000000      39.32000000      39.65000000      39.96000000      40.24000000      40.51000000      40.77000000      41.04000000      41.32000000      41.62000000      41.95000000      42.32000000      42.73000000      43.19000000      43.70000000      44.25000000      44.85000000      45.49000000      46.17000000      46.88000000      47.62000000      48.36000000      49.12000000      49.86000000      50.59000000      51.30000000      51.97000000      52.61000000      53.21000000      53.75000000      54.26000000      54.71000000      55.11000000      55.48000000      55.81000000      56.11000000      56.39000000      56.66000000      56.93000000      57.21000000      57.50000000      57.82000000      58.17000000      58.55000000      58.98000000      59.46000000      59.98000000      60.55000000      61.16000000      61.81000000      62.49000000      63.19000000      63.91000000      64.64000000      65.36000000      66.07000000      66.75000000      67.41000000      68.03000000      68.61000000      69.14000000      69.62000000      70.05000000      70.43000000      70.76000000      71.06000000      71.32000000      71.56000000      71.78000000      71.99000000      72.20000000      72.43000000      72.67000000      72.94000000      73.25000000      73.59000000      73.98000000      74.41000000
        39.19000000      39.61000000      39.97000000      40.28000000      40.54000000      40.75000000      40.94000000      41.10000000      41.26000000      41.42000000      41.59000000      41.80000000      42.05000000      42.34000000      42.69000000      43.11000000      43.58000000      44.12000000      44.73000000      45.39000000      46.09000000      46.84000000      47.62000000      48.42000000      49.22000000      50.01000000      50.79000000      51.53000000      52.23000000      52.88000000      53.48000000      54.01000000      54.48000000      54.88000000      55.23000000      55.52000000      55.76000000      55.97000000      56.14000000      56.31000000      56.47000000      56.64000000      56.83000000      57.06000000      57.33000000      57.65000000      58.03000000      58.48000000      58.98000000      59.54000000      60.16000000      60.84000000      61.55000000      62.30000000      63.07000000      63.84000000      64.62000000      65.37000000      66.10000000      66.79000000      67.43000000      68.01000000      68.54000000      68.99000000      69.38000000      69.71000000      69.98000000      70.19000000      70.37000000      70.51000000      70.62000000      70.73000000      70.84000000      70.97000000      71.12000000      71.31000000      71.55000000      71.84000000      72.20000000      72.61000000
        40.34000000      40.73000000      41.03000000      41.27000000      41.45000000      41.57000000      41.66000000      41.71000000      41.76000000      41.82000000      41.89000000      42.00000000      42.16000000      42.38000000      42.68000000      43.04000000      43.49000000      44.01000000      44.62000000      45.29000000      46.02000000      46.81000000      47.63000000      48.47000000      49.32000000      50.16000000      50.98000000      51.76000000      52.49000000      53.15000000      53.74000000      54.25000000      54.69000000      55.05000000      55.33000000      55.54000000      55.69000000      55.80000000      55.88000000      55.93000000      55.99000000      56.05000000      56.15000000      56.28000000      56.48000000      56.73000000      57.06000000      57.46000000      57.95000000      58.51000000      59.14000000      59.83000000      60.58000000      61.37000000      62.18000000      63.01000000      63.83000000      64.64000000      65.41000000      66.13000000      66.78000000      67.37000000      67.89000000      68.32000000      68.67000000      68.94000000      69.14000000      69.28000000      69.36000000      69.40000000      69.41000000      69.41000000      69.42000000      69.45000000      69.51000000      69.63000000      69.80000000      70.03000000      70.34000000      70.73000000
        41.52000000      41.87000000      42.12000000      42.29000000      42.39000000      42.42000000      42.40000000      42.35000000      42.29000000      42.24000000      42.21000000      42.23000000      42.30000000      42.44000000      42.67000000      42.99000000      43.41000000      43.92000000      44.52000000      45.20000000      45.96000000      46.78000000      47.64000000      48.53000000      49.43000000      50.32000000      51.17000000      51.98000000      52.73000000      53.41000000      53.99000000      54.49000000      54.89000000      55.20000000      55.41000000      55.55000000      55.61000000      55.62000000      55.59000000      55.54000000      55.49000000      55.45000000      55.44000000      55.49000000      55.60000000      55.79000000      56.06000000      56.43000000      56.89000000      57.44000000      58.08000000      58.80000000      59.58000000      60.41000000      61.27000000      62.14000000      63.01000000      63.86000000      64.67000000      65.42000000      66.09000000      66.69000000      67.19000000      67.60000000      67.91000000      68.12000000      68.25000000      68.31000000      68.30000000      68.24000000      68.15000000      68.04000000      67.95000000      67.88000000      67.85000000      67.88000000      67.98000000      68.16000000      68.44000000      68.80000000
        42.73000000      43.04000000      43.24000000      43.33000000      43.35000000      43.28000000      43.17000000      43.01000000      42.84000000      42.68000000      42.55000000      42.47000000      42.45000000      42.52000000      42.69000000      42.96000000      43.34000000      43.84000000      44.43000000      45.13000000      45.91000000      46.76000000      47.66000000      48.60000000      49.54000000      50.47000000      51.37000000      52.21000000      52.98000000      53.66000000      54.24000000      54.71000000      55.08000000      55.34000000      55.49000000      55.54000000      55.52000000      55.43000000      55.30000000      55.14000000      54.97000000      54.83000000      54.72000000      54.68000000      54.71000000      54.83000000      55.05000000      55.38000000      55.81000000      56.36000000      57.00000000      57.74000000      58.55000000      59.41000000      60.32000000      61.24000000      62.16000000      63.05000000      63.89000000      64.67000000      65.36000000      65.96000000      66.45000000      66.83000000      67.10000000      67.26000000      67.32000000      67.29000000      67.18000000      67.03000000      66.83000000      66.62000000      66.43000000      66.26000000      66.14000000      66.08000000      66.12000000      66.24000000      66.47000000      66.81000000
        43.97000000      44.23000000      44.37000000      44.40000000      44.33000000      44.17000000      43.95000000      43.69000000      43.42000000      43.15000000      42.91000000      42.73000000      42.63000000      42.62000000      42.72000000      42.95000000      43.29000000      43.77000000      44.36000000      45.07000000      45.87000000      46.75000000      47.69000000      48.66000000      49.65000000      50.62000000      51.55000000      52.42000000      53.21000000      53.90000000      54.48000000      54.93000000      55.26000000      55.46000000      55.55000000      55.53000000      55.41000000      55.22000000      54.98000000      54.72000000      54.44000000      54.19000000      53.99000000      53.85000000      53.80000000      53.85000000      54.02000000      54.30000000      54.72000000      55.25000000      55.90000000      56.65000000      57.49000000      58.39000000      59.34000000      60.31000000      61.27000000      62.20000000      63.08000000      63.88000000      64.59000000      65.19000000      65.66000000      66.02000000      66.24000000      66.34000000      66.33000000      66.22000000      66.03000000      65.77000000      65.47000000      65.16000000      64.85000000      64.59000000      64.37000000      64.24000000      64.20000000      64.27000000      64.46000000      64.77000000
        45.22000000      45.44000000      45.52000000      45.48000000      45.33000000      45.08000000      44.76000000      44.39000000      44.00000000      43.63000000      43.29000000      43.01000000      42.82000000      42.73000000      42.77000000      42.95000000      43.26000000      43.71000000      44.30000000      45.01000000      45.83000000      46.74000000      47.72000000      48.74000000      49.76000000      50.77000000      51.74000000      52.64000000      53.44000000      54.14000000      54.70000000      55.14000000      55.43000000      55.58000000      55.60000000      55.50000000      55.29000000      55.01000000      54.66000000      54.28000000      53.90000000      53.54000000      53.24000000      53.01000000      52.87000000      52.86000000      52.97000000      53.22000000      53.60000000      54.13000000      54.78000000      55.55000000      56.41000000      57.35000000      58.34000000      59.35000000      60.35000000      61.32000000      62.23000000      63.06000000      63.78000000      64.38000000      64.84000000      65.16000000      65.35000000      65.39000000      65.31000000      65.11000000      64.83000000      64.47000000      64.07000000      63.65000000      63.24000000      62.87000000      62.57000000      62.35000000      62.25000000      62.26000000      62.41000000      62.69000000
        46.49000000      46.67000000      46.69000000      46.58000000      46.34000000      46.00000000      45.58000000      45.10000000      44.61000000      44.12000000      43.68000000      43.31000000      43.03000000      42.86000000      42.84000000      42.96000000      43.24000000      43.67000000      44.25000000      44.97000000      45.81000000      46.75000000      47.76000000      48.81000000      49.88000000      50.92000000      51.92000000      52.85000000      53.67000000      54.37000000      54.92000000      55.33000000      55.58000000      55.68000000      55.64000000      55.45000000      55.16000000      54.77000000      54.32000000      53.84000000      53.35000000      52.88000000      52.48000000      52.15000000      51.94000000      51.85000000      51.91000000      52.12000000      52.48000000      52.99000000      53.64000000      54.43000000      55.31000000      56.29000000      57.31000000      58.36000000      59.41000000      60.41000000      61.35000000      62.20000000      62.93000000      63.53000000      63.98000000      64.27000000      64.41000000      64.40000000      64.24000000      63.97000000      63.59000000      63.13000000      62.63000000      62.10000000      61.59000000      61.12000000      60.73000000      60.43000000      60.25000000      60.21000000      60.31000000      60.57000000
        47.77000000      47.91000000      47.87000000      47.69000000      47.37000000      46.93000000      46.41000000      45.83000000      45.23000000      44.64000000      44.09000000      43.62000000      43.25000000      43.01000000      42.92000000      42.99000000      43.23000000      43.64000000      44.22000000      44.94000000      45.79000000      46.76000000      47.80000000      48.89000000      49.99000000      51.07000000      52.10000000      53.05000000      53.89000000      54.59000000      55.13000000      55.52000000      55.73000000      55.78000000      55.66000000      55.40000000      55.02000000      54.53000000      53.98000000      53.38000000      52.78000000      52.22000000      51.71000000      51.29000000      51.00000000      50.84000000      50.84000000      51.00000000      51.34000000      51.84000000      52.49000000      53.29000000      54.20000000      55.20000000      56.26000000      57.35000000      58.43000000      59.48000000      60.45000000      61.31000000      62.06000000      62.65000000      63.08000000      63.35000000      63.44000000      63.37000000      63.14000000      62.78000000      62.31000000      61.76000000      61.15000000      60.52000000      59.91000000      59.34000000      58.85000000      58.47000000      58.22000000      58.12000000      58.19000000      58.42000000
        49.07000000      49.16000000      49.07000000      48.81000000      48.41000000      47.88000000      47.26000000      46.57000000      45.86000000      45.16000000      44.51000000      43.94000000      43.49000000      43.17000000      43.02000000      43.04000000      43.24000000      43.63000000      44.19000000      44.92000000      45.79000000      46.77000000      47.84000000      48.97000000      50.11000000      51.22000000      52.28000000      53.25000000      54.10000000      54.80000000      55.33000000      55.69000000      55.87000000      55.86000000      55.67000000      55.34000000      54.86000000      54.28000000      53.62000000      52.92000000      52.21000000      51.54000000      50.93000000      50.42000000      50.05000000      49.82000000      49.76000000      49.88000000      50.19000000      50.68000000      51.33000000      52.14000000      53.07000000      54.10000000      55.20000000      56.32000000      57.44000000      58.52000000      59.51000000      60.40000000      61.15000000      61.74000000      62.16000000      62.39000000      62.44000000      62.31000000      62.01000000      61.57000000      61.01000000      60.35000000      59.64000000      58.91000000      58.20000000      57.53000000      56.95000000      56.49000000      56.17000000      56.01000000      56.03000000      56.23000000
        50.37000000      50.42000000      50.27000000      49.94000000      49.45000000      48.83000000      48.11000000      47.32000000      46.51000000      45.70000000      44.95000000      44.28000000      43.74000000      43.35000000      43.13000000      43.10000000      43.26000000      43.63000000      44.18000000      44.91000000      45.79000000      46.80000000      47.90000000      49.05000000      50.22000000      51.37000000      52.46000000      53.44000000      54.30000000      55.00000000      55.53000000      55.86000000      55.99000000      55.93000000      55.68000000      55.26000000      54.69000000      54.01000000      53.25000000      52.44000000      51.63000000      50.85000000      50.15000000      49.55000000      49.09000000      48.79000000      48.68000000      48.76000000      49.04000000      49.51000000      50.16000000      50.98000000      51.93000000      52.99000000      54.11000000      55.27000000      56.43000000      57.53000000      58.56000000      59.46000000      60.22000000      60.80000000      61.20000000      61.40000000      61.41000000      61.22000000      60.85000000      60.33000000      59.67000000      58.92000000      58.11000000      57.28000000      56.46000000      55.70000000      55.03000000      54.49000000      54.10000000      53.88000000      53.85000000      54.03000000
        51.68000000      51.68000000      51.47000000      51.07000000      50.51000000      49.79000000      48.97000000      48.08000000      47.16000000      46.25000000      45.40000000      44.64000000      44.01000000      43.54000000      43.25000000      43.17000000      43.30000000      43.63000000      44.18000000      44.91000000      45.80000000      46.82000000      47.95000000      49.13000000      50.34000000      51.51000000      52.62000000      53.63000000      54.50000000      55.20000000      55.71000000      56.01000000      56.10000000      55.99000000      55.67000000      55.17000000      54.52000000      53.74000000      52.88000000      51.97000000      51.05000000      50.17000000      49.36000000      48.67000000      48.13000000      47.77000000      47.60000000      47.63000000      47.88000000      48.34000000      48.99000000      49.81000000      50.78000000      51.86000000      53.02000000      54.21000000      55.40000000      56.53000000      57.58000000      58.50000000      59.26000000      59.84000000      60.22000000      60.39000000      60.35000000      60.10000000      59.66000000      59.06000000      58.31000000      57.47000000      56.55000000      55.62000000      54.70000000      53.84000000      53.09000000      52.46000000      52.00000000      51.73000000      51.66000000      51.80000000
        52.99000000      52.94000000      52.68000000      52.21000000      51.56000000      50.76000000      49.84000000      48.85000000      47.82000000      46.81000000      45.85000000      45.00000000      44.28000000      43.74000000      43.39000000      43.25000000      43.34000000      43.66000000      44.18000000      44.91000000      45.82000000      46.86000000      48.01000000      49.22000000      50.45000000      51.66000000      52.79000000      53.81000000      54.69000000      55.38000000      55.88000000      56.16000000      56.21000000      56.04000000      55.65000000      55.08000000      54.34000000      53.46000000      52.50000000      51.48000000      50.46000000      49.48000000      48.58000000      47.80000000      47.18000000      46.74000000      46.51000000      46.51000000      46.73000000      47.16000000      47.81000000      48.64000000      49.62000000      50.73000000      51.92000000      53.14000000      54.35000000      55.52000000      56.59000000      57.52000000      58.29000000      58.86000000      59.22000000      59.36000000      59.27000000      58.96000000      58.46000000      57.77000000      56.94000000      55.99000000      54.98000000      53.95000000      52.93000000      51.98000000      51.13000000      50.43000000      49.90000000      49.57000000      49.46000000      49.57000000
        54.30000000      54.21000000      53.89000000      53.35000000      52.61000000      51.72000000      50.71000000      49.61000000      48.49000000      47.37000000      46.32000000      45.37000000      44.57000000      43.95000000      43.54000000      43.35000000      43.40000000      43.69000000      44.20000000      44.93000000      45.84000000      46.90000000      48.07000000      49.31000000      50.57000000      51.80000000      52.95000000      53.99000000      54.87000000      55.56000000      56.04000000      56.29000000      56.30000000      56.07000000      55.62000000      54.97000000      54.14000000      53.18000000      52.11000000      50.99000000      49.87000000      48.78000000      47.79000000      46.92000000      46.22000000      45.72000000      45.43000000      45.38000000      45.57000000      45.99000000      46.63000000      47.47000000      48.47000000      49.59000000      50.81000000      52.06000000      53.30000000      54.49000000      55.58000000      56.52000000      57.29000000      57.86000000      58.20000000      58.30000000      58.17000000      57.81000000      57.23000000      56.46000000      55.54000000      54.51000000      53.40000000      52.26000000      51.15000000      50.10000000      49.17000000      48.39000000      47.79000000      47.41000000      47.25000000      47.33000000
        55.60000000      55.47000000      55.09000000      54.48000000      53.67000000      52.69000000      51.58000000      50.39000000      49.16000000      47.94000000      46.79000000      45.75000000      44.87000000      44.17000000      43.70000000      43.46000000      43.47000000      43.73000000      44.23000000      44.95000000      45.87000000      46.95000000      48.14000000      49.40000000      50.68000000      51.93000000      53.11000000      54.16000000      55.04000000      55.73000000      56.19000000      56.41000000      56.38000000      56.10000000      55.59000000      54.86000000      53.94000000      52.88000000      51.72000000      50.50000000      49.28000000      48.09000000      47.00000000      46.05000000      45.27000000      44.70000000      44.36000000      44.27000000      44.42000000      44.83000000      45.46000000      46.30000000      47.31000000      48.46000000      49.69000000      50.97000000      52.24000000      53.45000000      54.56000000      55.51000000      56.29000000      56.84000000      57.16000000      57.23000000      57.05000000      56.63000000      55.99000000      55.14000000      54.14000000      53.01000000      51.80000000      50.57000000      49.36000000      48.23000000      47.21000000      46.35000000      45.68000000      45.24000000      45.04000000      45.09000000
        56.90000000      56.72000000      56.28000000      55.60000000      54.71000000      53.65000000      52.45000000      51.16000000      49.83000000      48.52000000      47.27000000      46.14000000      45.18000000      44.41000000      43.87000000      43.58000000      43.55000000      43.78000000      44.27000000      44.99000000      45.91000000      47.00000000      48.21000000      49.49000000      50.79000000      52.07000000      53.26000000      54.32000000      55.21000000      55.89000000      56.33000000      56.52000000      56.45000000      56.12000000      55.54000000      54.74000000      53.74000000      52.59000000      51.33000000      50.01000000      48.68000000      47.41000000      46.22000000      45.18000000      44.33000000      43.69000000      43.29000000      43.16000000      43.28000000      43.67000000      44.29000000      45.13000000      46.16000000      47.32000000      48.58000000      49.88000000      51.17000000      52.41000000      53.53000000      54.50000000      55.27000000      55.81000000      56.11000000      56.15000000      55.93000000      55.45000000      54.74000000      53.81000000      52.72000000      51.50000000      50.21000000      48.88000000      47.58000000      46.35000000      45.25000000      44.31000000      43.58000000      43.08000000      42.84000000      42.86000000
        58.18000000      57.96000000      57.46000000      56.72000000      55.75000000      54.60000000      53.31000000      51.92000000      50.50000000      49.09000000      47.76000000      46.54000000      45.49000000      44.65000000      44.05000000      43.71000000      43.64000000      43.85000000      44.32000000      45.03000000      45.95000000      47.05000000      48.28000000      49.58000000      50.90000000      52.20000000      53.40000000      54.48000000      55.37000000      56.04000000      56.47000000      56.63000000      56.51000000      56.13000000      55.48000000      54.61000000      53.53000000      52.28000000      50.93000000      49.52000000      48.09000000      46.72000000      45.45000000      44.32000000      43.39000000      42.69000000      42.24000000      42.06000000      42.15000000      42.52000000      43.13000000      43.98000000      45.01000000      46.19000000      47.47000000      48.79000000      50.11000000      51.36000000      52.50000000      53.47000000      54.24000000      54.78000000      55.05000000      55.06000000      54.79000000      54.26000000      53.48000000      52.48000000      51.31000000      50.00000000      48.61000000      47.19000000      45.79000000      44.48000000      43.29000000      42.28000000      41.49000000      40.94000000      40.65000000      40.64000000
        59.45000000      59.18000000      58.63000000      57.82000000      56.78000000      55.55000000      54.17000000      52.69000000      51.17000000      49.67000000      48.24000000      46.94000000      45.81000000      44.90000000      44.24000000      43.85000000      43.74000000      43.92000000      44.37000000      45.08000000      46.00000000      47.11000000      48.35000000      49.67000000      51.01000000      52.32000000      53.54000000      54.62000000      55.52000000      56.18000000      56.59000000      56.72000000      56.56000000      56.13000000      55.42000000      54.47000000      53.31000000      51.98000000      50.53000000      49.03000000      47.51000000      46.04000000      44.68000000      43.48000000      42.47000000      41.70000000      41.20000000      40.98000000      41.04000000      41.38000000      41.99000000      42.83000000      43.87000000      45.07000000      46.36000000      47.71000000      49.04000000      50.31000000      51.46000000      52.44000000      53.21000000      53.74000000      53.99000000      53.96000000      53.65000000      53.06000000      52.21000000      51.14000000      49.89000000      48.49000000      47.01000000      45.50000000      44.02000000      42.62000000      41.35000000      40.27000000      39.41000000      38.81000000      38.48000000      38.43000000