# File generated by Flopy version 3.3.5 on 03/04/2022 at 11:14:43.
BEGIN griddata
  strt
    INTERNAL  FACTOR  1.0
        54.92000000      55.48000000      56.05000000      56.62000000      57.19000000      57.76000000      58.33000000      58.90000000      59.48000000      60.06000000      60.64000000      61.22000000      61.80000000      62.38000000      62.96000000      63.54000000      64.13000000      64.71000000      65.30000000      65.89000000      66.47000000      67.06000000      67.65000000      68.24000000      68.82000000      69.41000000      70.00000000      70.59000000      71.18000000      71.76000000      72.35000000      72.94000000      73.53000000      74.11000000      74.70000000      75.29000000      75.87000000      76.46000000      77.04000000      77.62000000      78.20000000      78.78000000      79.36000000      79.94000000      80.52000000      81.10000000      81.67000000      82.24000000      82.81000000      83.38000000      83.95000000      84.52000000      85.08000000      85.65000000      86.21000000      86.77000000      87.32000000      87.88000000      88.43000000      88.98000000      89.53000000      90.08000000      90.62000000      91.16000000      91.70000000      92.23000000      92.77000000      93.30000000      93.82000000      94.35000000      94.87000000      95.39000000      95.90000000      96.41000000      96.92000000      97.42000000      97.93000000      98.42000000      98.92000000      99.41000000
        55.93000000      56.46000000      56.98000000      57.48000000      57.97000000      58.46000000      58.94000000      59.41000000      59.88000000      60.36000000      60.84000000      61.33000000      61.83000000      62.34000000      62.87000000      63.41000000      63.97000000      64.54000000      65.14000000      65.74000000      66.36000000      66.99000000      67.63000000      68.27000000      68.92000000      69.56000000      70.20000000      70.83000000      71.45000000      72.05000000      72.64000000      73.22000000      73.78000000      74.32000000      74.85000000      75.37000000      75.87000000      76.36000000      76.84000000      77.32000000      77.80000000      78.28000000      78.77000000      79.26000000      79.76000000      80.28000000      80.80000000      81.35000000      81.90000000      82.47000000      83.06000000      83.65000000      84.26000000      84.87000000      85.49000000      86.10000000      86.72000000      87.32000000      87.92000000      88.51000000      89.08000000      89.64000000      90.18000000      90.70000000      91.20000000      91.69000000      92.16000000      92.61000000      93.05000000      93.48000000      93.90000000      94.32000000      94.73000000      95.15000000      95.57000000      96.00000000      96.44000000      96.89000000      97.35000000      97.82000000
        56.98000000      57.47000000      57.94000000      58.38000000      58.80000000      59.19000000      59.57000000      59.95000000      60.31000000      60.69000000      61.07000000      61.46000000      61.88000000      62.32000000      62.79000000      63.29000000      63.82000000      64.39000000      64.99000000      65.61000000      66.26000000      66.93000000      67.62000000      68.32000000      69.02000000      69.71000000      70.39000000      71.06000000      71.71000000      72.34000000      72.93000000      73.49000000      74.02000000      74.52000000      74.99000000      75.43000000      75.85000000      76.24000000      76.63000000      77.00000000      77.38000000      77.76000000      78.14000000      78.55000000      78.98000000      79.43000000      79.91000000      80.42000000      80.96000000      81.53000000      82.13000000      82.75000000      83.39000000      84.05000000      84.72000000      85.39000000      86.06000000      86.72000000      87.36000000      87.98000000      88.58000000      89.15000000      89.68000000      90.19000000      90.65000000      91.09000000      91.49000000      91.86000000      92.22000000      92.55000000      92.87000000      93.19000000      93.50000000      93.82000000      94.16000000      94.51000000      94.88000000      95.28000000      95.70000000      96.15000000
        58.06000000      58.53000000      58.94000000      59.32000000      59.65000000      59.96000000      60.24000000      60.51000000      60.77000000      61.04000000      61.32000000      61.62000000      61.95000000      62.32000000      62.73000000      63.19000000      63.70000000      64.25000000      64.85000000      65.49000000      66.17000000      66.88000000      67.62000000      68.36000000      69.12000000      69.86000000      70.59000000      71.30000000      71.97000000      72.61000000      73.21000000      73.75000000      74.26000000      74.71000000      75.11000000      75.48000000      75.81000000      76.11000000      76.39000000      76.66000000      76.93000000      77.21000000      77.50000000      77.82000000      78.17000000      78.55000000      78.98000000      79.46000000      79.98000000      80.55000000      81.16000000      81.81000000      82.49000000      83.19000000      83.91000000      84.64000000      85.36000000      86.07000000      86.75000000      87.41000000      88.03000000      88.61000000      89.14000000      89.62000000      90.05000000      90.43000000      90.76000000      91.06000000      91.32000000      91.56000000      91.78000000      91.99000000      92.20000000      92.43000000      92.67000000      92.94000000      93.25000000      93.59000000      93.98000000      94.41000000
        59.19000000      59.61000000      59.97000000      60.28000000      60.54000000      60.75000000      60.94000000      61.10000000      61.26000000      61.42000000      61.59000000      61.80000000      62.05000000      62.34000000      62.69000000      63.11000000      63.58000000      64.12000000      64.73000000      65.39000000      66.09000000      66.84000000      67.62000000      68.42000000      69.22000000      70.01000000      70.79000000      71.53000000      72.23000000      72.88000000      73.48000000      74.01000000      74.48000000      74.88000000      75.23000000      75.52000000      75.76000000      75.97000000      76.14000000      76.31000000      76.47000000      76.64000000      76.83000000      77.06000000      77.33000000      77.65000000      78.03000000      78.48000000      78.98000000      79.54000000      80.16000000      80.84000000      81.55000000      82.30000000      83.07000000      83.84000000      84.62000000      85.37000000      86.10000000      86.79000000      87.43000000      88.01000000      88.54000000      88.99000000      89.38000000      89.71000000      89.98000000      90.19000000      90.37000000      90.51000000      90.62000000      90.73000000      90.84000000      90.97000000      91.12000000      91.31000000      91.55000000      91.84000000      92.20000000      92.61000000
        60.34000000      60.73000000      61.03000000      61.27000000      61.45000000      61.57000000      61.66000000      61.71000000      61.76000000      61.82000000      61.89000000      62.00000000      62.16000000      62.38000000      62.68000000      63.04000000      63.49000000      64.01000000      64.62000000      65.29000000      66.02000000      66.81000000      67.63000000      68.47000000      69.32000000      70.16000000      70.98000000      71.76000000      72.49000000      73.15000000      73.74000000      74.25000000      74.69000000      75.05000000      75.33000000      75.54000000      75.69000000      75.80000000      75.88000000      75.93000000      75.99000000      76.05000000      76.15000000      76.28000000      76.48000000      76.73000000      77.06000000      77.46000000      77.95000000      78.51000000      79.14000000      79.83000000      80.58000000      81.37000000      82.18000000      83.01000000      83.83000000      84.64000000      85.41000000      86.13000000      86.78000000      87.37000000      87.89000000      88.32000000      88.67000000      88.94000000      89.14000000      89.28000000      89.36000000      89.40000000      89.41000000      89.41000000      89.42000000      89.45000000      89.51000000      89.63000000      89.80000000      90.03000000      90.34000000      90.73000000
        61.52000000      61.87000000      62.12000000      62.29000000      62.39000000      62.42000000      62.40000000      62.35000000      62.29000000      62.24000000      62.21000000      62.23000000      62.30000000      62.44000000      62.67000000      62.99000000      63.41000000      63.92000000      64.52000000      65.20000000      65.96000000      66.78000000      67.64000000      68.53000000      69.43000000      70.32000000      71.17000000      71.98000000      72.73000000      73.41000000      73.99000000      74.49000000      74.89000000      75.20000000      75.41000000      75.55000000      75.61000000      75.62000000      75.59000000      75.54000000      75.49000000      75.45000000      75.44000000      75.49000000      75.60000000      75.79000000      76.06000000      76.43000000      76.89000000      77.44000000      78.08000000      78.80000000      79.58000000      80.41000000      81.27000000      82.14000000      83.01000000      83.86000000      84.67000000      85.42000000      86.09000000      86.69000000      87.19000000      87.60000000      87.91000000      88.12000000      88.25000000      88.31000000      88.30000000      88.24000000      88.15000000      88.04000000      87.95000000      87.88000000      87.85000000      87.88000000      87.98000000      88.16000000      88.44000000      88.80000000
        62.73000000      63.04000000      63.24000000      63.33000000      63.35000000      63.28000000      63.17000000      63.01000000      62.84000000      62.68000000      62.55000000      62.47000000      62.45000000      62.52000000      62.69000000      62.96000000      63.34000000      63.84000000      64.43000000      65.13000000      65.91000000      66.76000000      67.66000000      68.60000000      69.54000000      70.47000000      71.37000000      72.21000000      72.98000000      73.66000000      74.24000000      74.71000000      75.08000000      75.34000000      75.49000000      75.54000000      75.52000000      75.43000000      75.30000000      75.14000000      74.97000000      74.83000000      74.72000000      74.68000000      74.71000000      74.83000000      75.05000000      75.38000000      75.81000000      76.36000000      77.00000000      77.74000000      78.55000000      79.41000000      80.32000000      81.24000000      82.16000000      83.05000000      83.89000000      84.67000000      85.36000000      85.96000000      86.45000000      86.83000000      87.10000000      87.26000000      87.32000000      87.29000000      87.18000000      87.03000000      86.83000000      86.62000000      86.43000000      86.26000000      86.14000000      86.08000000      86.12000000      86.24000000      86.47000000      86.81000000
        63.97000000      64.23000000      64.37000000      64.40000000      64.33000000      64.17000000      63.95000000      63.69000000      63.42000000      63.15000000      62.91000000      62.73000000      62.63000000      62.62000000      62.72000000      62.95000000      63.29000000      63.77000000      64.36000000      65.07000000      65.87000000      66.75000000      67.69000000      68.66000000      69.65000000      70.62000000      71.55000000      72.42000000      73.21000000      73.90000000      74.48000000      74.93000000      75.26000000      75.46000000      75.55000000      75.53000000      75.41000000      75.22000000      74.98000000      74.72000000      74.44000000      74.19000000      73.99000000      73.85000000      73.80000000      73.85000000      74.02000000      74.30000000      74.72000000      75.25000000      75.90000000      76.65000000      77.49000000      78.39000000      79.34000000      80.31000000      81.27000000      82.20000000      83.08000000      83.88000000      84.59000000      85.19000000      85.66000000      86.02000000      86.24000000      86.34000000      86.33000000      86.22000000      86.03000000      85.77000000      85.47000000      85.16000000      84.85000000      84.59000000      84.37000000      84.24000000      84.20000000      84.27000000      84.46000000      84.77000000
        65.22000000      65.44000000      65.52000000      65.48000000      65.33000000      65.08000000      64.76000000      64.39000000      64.00000000      63.63000000      63.29000000      63.01000000      62.82000000      62.73000000      62.77000000      62.95000000      63.26000000      63.71000000      64.30000000      65.01000000      65.83000000      66.74000000      67.72000000      68.74000000      69.76000000      70.77000000      71.74000000      72.64000000      73.44000000      74.14000000      74.70000000      75.14000000      75.43000000      75.58000000      75.60000000      75.50000000      75.29000000      75.01000000      74.66000000      74.28000000      73.90000000      73.54000000      73.24000000      73.01000000      72.87000000      72.86000000      72.97000000      73.22000000      73.60000000      74.13000000      74.78000000      75.55000000      76.41000000      77.35000000      78.34000000      79.35000000      80.35000000      81.32000000      82.23000000      83.06000000      83.78000000      84.38000000      84.84000000      85.16000000      85.35000000      85.39000000      85.31000000      85.11000000      84.83000000      84.47000000      84.07000000      83.65000000      83.24000000      82.87000000      82.57000000      82.35000000      82.25000000      82.26000000      82.41000000      82.69000000
        66.49000000      66.67000000      66.69000000      66.58000000      66.34000000      66.00000000      65.58000000      65.10000000      64.61000000      64.12000000      63.68000000      63.31000000      63.03000000      62.86000000      62.84000000      62.96000000      63.24000000      63.67000000      64.25000000      64.97000000      65.81000000      66.75000000      67.76000000      68.81000000      69.88000000      70.92000000      71.92000000      72.85000000      73.67000000      74.37000000      74.92000000      75.33000000      75.58000000      75.68000000      75.64000000      75.45000000      75.16000000      74.77000000      74.32000000      73.84000000      73.35000000      72.88000000      72.48000000      72.15000000      71.94000000      71.85000000      71.91000000      72.12000000      72.48000000      72.99000000      73.64000000      74.43000000      75.31000000      76.29000000      77.31000000      78.36000000      79.41000000      80.41000000      81.35000000      82.20000000      82.93000000      83.53000000      83.98000000      84.27000000      84.41000000      84.40000000      84.24000000      83.97000000      83.59000000      83.13000000      82.63000000      82.10000000      81.59000000      81.12000000      80.73000000      80.43000000      80.25000000      80.21000000      80.31000000      80.57000000
        67.77000000      67.91000000      67.87000000      67.69000000      67.37000000      66.93000000      66.41000000      65.83000000      65.23000000      64.64000000      64.09000000      63.62000000      63.25000000      63.01000000      62.92000000      62.99000000      63.23000000      63.64000000      64.22000000      64.94000000      65.79000000      66.76000000      67.80000000      68.89000000      69.99000000      71.07000000      72.10000000      73.05000000      73.89000000      74.59000000      75.13000000      75.52000000      75.73000000      75.78000000      75.66000000      75.40000000      75.02000000      74.53000000      73.98000000      73.38000000      72.78000000      72.22000000      71.71000000      71.29000000      71.00000000      70.84000000      70.84000000      71.00000000      71.34000000      71.84000000      72.49000000      73.29000000      74.20000000      75.20000000      76.26000000      77.35000000      78.43000000      79.48000000      80.45000000      81.31000000      82.06000000      82.65000000      83.08000000      83.35000000      83.44000000      83.37000000      83.14000000      82.78000000      82.31000000      81.76000000      81.15000000      80.52000000      79.91000000      79.34000000      78.85000000      78.47000000      78.22000000      78.12000000      78.19000000      78.42000000
        69.07000000      69.16000000      69.07000000      68.81000000      68.41000000      67.88000000      67.26000000      66.57000000      65.86000000      65.16000000      64.51000000      63.94000000      63.49000000      63.17000000      63.02000000      63.04000000      63.24000000      63.63000000      64.19000000      64.92000000      65.79000000      66.77000000      67.84000000      68.97000000      70.11000000      71.22000000      72.28000000      73.25000000      74.10000000      74.80000000      75.33000000      75.69000000      75.87000000      75.86000000      75.67000000      75.34000000      74.86000000      74.28000000      73.62000000      72.92000000      72.21000000      71.54000000      70.93000000      70.42000000      70.05000000      69.82000000      69.76000000      69.88000000      70.19000000      70.68000000      71.33000000      72.14000000      73.07000000      74.10000000      75.20000000      76.32000000      77.44000000      78.52000000      79.51000000      80.40000000      81.15000000      81.74000000      82.16000000      82.39000000      82.44000000      82.31000000      82.01000000      81.57000000      81.01000000      80.35000000      79.64000000      78.91000000      78.20000000      77.53000000      76.95000000      76.49000000      76.17000000      76.01000000      76.03000000      76.23000000
        70.37000000      70.42000000      70.27000000      69.94000000      69.45000000      68.83000000      68.11000000      67.32000000      66.51000000      65.70000000      64.95000000      64.28000000      63.74000000      63.35000000      63.13000000      63.10000000      63.26000000      63.63000000      64.18000000      64.91000000      65.79000000      66.80000000      67.90000000      69.05000000      70.22000000      71.37000000      72.46000000      73.44000000      74.30000000      75.00000000      75.53000000      75.86000000      75.99000000      75.93000000      75.68000000      75.26000000      74.69000000      74.01000000      73.25000000      72.44000000      71.63000000      70.85000000      70.15000000      69.55000000      69.09000000      68.79000000      68.68000000      68.76000000      69.04000000      69.51000000      70.16000000      70.98000000      71.93000000      72.99000000      74.11000000      75.27000000      76.43000000      77.53000000      78.56000000      79.46000000      80.22000000      80.80000000      81.20000000      81.40000000      81.41000000      81.22000000      80.85000000      80.33000000      79.67000000      78.92000000      78.11000000      77.28000000      76.46000000      75.70000000      75.03000000      74.49000000      74.10000000      73.88000000      73.85000000      74.03000000
        71.68000000      71.68000000      71.47000000      71.07000000      70.51000000      69.79000000      68.97000000      68.08000000      67.16000000      66.25000000      65.40000000      64.64000000      64.01000000      63.54000000      63.25000000      63.17000000      63.30000000      63.63000000      64.18000000      64.91000000      65.80000000      66.82000000      67.95000000      69.13000000      70.34000000      71.51000000      72.62000000      73.63000000      74.50000000      75.20000000      75.71000000      76.01000000      76.10000000      75.99000000      75.67000000      75.17000000      74.52000000      73.74000000      72.88000000      71.97000000      71.05000000      70.17000000      69.36000000      68.67000000      68.13000000      67.77000000      67.60000000      67.63000000      67.88000000      68.34000000      68.99000000      69.81000000      70.78000000      71.86000000      73.02000000      74.21000000      75.40000000      76.53000000      77.58000000      78.50000000      79.26000000      79.84000000      80.22000000      80.39000000      80.35000000      80.10000000      79.66000000      79.06000000      78.31000000      77.47000000      76.55000000      75.62000000      74.70000000      73.84000000      73.09000000      72.46000000      72.00000000      71.73000000      71.66000000      71.80000000
        72.99000000      72.94000000      72.68000000      72.21000000      71.56000000      70.76000000      69.84000000      68.85000000      67.82000000      66.81000000      65.85000000      65.00000000      64.28000000      63.74000000      63.39000000      63.25000000      63.34000000      63.66000000      64.18000000      64.91000000      65.82000000      66.86000000      68.01000000      69.22000000      70.45000000      71.66000000      72.79000000      73.81000000      74.69000000      75.38000000      75.88000000      76.16000000      76.21000000      76.04000000      75.65000000      75.08000000      74.34000000      73.46000000      72.50000000      71.48000000      70.46000000      69.48000000      68.58000000      67.80000000      67.18000000      66.74000000      66.51000000      66.51000000      66.73000000      67.16000000      67.81000000      68.64000000      69.62000000      70.73000000      71.92000000      73.14000000      74.35000000      75.52000000      76.59000000      77.52000000      78.29000000      78.86000000      79.22000000      79.36000000      79.27000000      78.96000000      78.46000000      77.77000000      76.94000000      75.99000000      74.98000000      73.95000000      72.93000000      71.98000000      71.13000000      70.43000000      69.90000000      69.57000000      69.46000000      69.57000000
        74.30000000      74.21000000      73.89000000      73.35000000      72.61000000      71.72000000      70.71000000      69.61000000      68.49000000      67.37000000      66.32000000      65.37000000      64.57000000      63.95000000      63.54000000      63.35000000      63.40000000      63.69000000      64.20000000      64.93000000      65.84000000      66.90000000      68.07000000      69.31000000      70.57000000      71.80000000      72.95000000      73.99000000      74.87000000      75.56000000      76.04000000      76.29000000      76.30000000      76.07000000      75.62000000      74.97000000      74.14000000      73.18000000      72.11000000      70.99000000      69.87000000      68.78000000      67.79000000      66.92000000      66.22000000      65.72000000      65.43000000      65.38000000      65.57000000      65.99000000      66.63000000      67.47000000      68.47000000      69.59000000      70.81000000      72.06000000      73.30000000      74.49000000      75.58000000      76.52000000      77.29000000      77.86000000      78.20000000      78.30000000      78.17000000      77.81000000      77.23000000      76.46000000      75.54000000      74.51000000      73.40000000      72.26000000      71.15000000      70.10000000      69.17000000      68.39000000      67.79000000      67.41000000      67.25000000      67.33000000
        75.60000000      75.47000000      75.09000000      74.48000000      73.67000000      72.69000000      71.58000000      70.39000000      69.16000000      67.94000000      66.79000000      65.75000000      64.87000000      64.17000000      63.70000000      63.46000000      63.47000000      63.73000000      64.23000000      64.95000000      65.87000000      66.95000000      68.14000000      69.40000000      70.68000000      71.93000000      73.11000000      74.16000000      75.04000000      75.73000000      76.19000000      76.41000000      76.38000000      76.10000000      75.59000000      74.86000000      73.94000000      72.88000000      71.72000000      70.50000000      69.28000000      68.09000000      67.00000000      66.05000000      65.27000000      64.70000000      64.36000000      64.27000000      64.42000000      64.83000000      65.46000000      66.30000000      67.31000000      68.46000000      69.69000000      70.97000000      72.24000000      73.45000000      74.56000000      75.51000000      76.29000000      76.84000000      77.16000000      77.23000000      77.05000000      76.63000000      75.99000000      75.14000000      74.14000000      73.01000000      71.80000000      70.57000000      69.36000000      68.23000000      67.21000000      66.35000000      65.68000000      65.24000000      65.04000000      65.09000000
        76.90000000      76.72000000      76.28000000      75.60000000      74.71000000      73.65000000      72.45000000      71.16000000      69.83000000      68.52000000      67.27000000      66.14000000      65.18000000      64.41000000      63.87000000      63.58000000      63.55000000      63.78000000      64.27000000      64.99000000      65.91000000      67.00000000      68.21000000      69.49000000      70.79000000      72.07000000      73.26000000      74.32000000      75.21000000      75.89000000      76.33000000      76.52000000      76.45000000      76.12000000      75.54000000      74.74000000      73.74000000      72.59000000      71.33000000      70.01000000      68.68000000      67.41000000      66.22000000      65.18000000      64.33000000      63.69000000      63.29000000      63.16000000      63.28000000      63.67000000      64.29000000      65.13000000      66.16000000      67.32000000      68.58000000      69.88000000      71.17000000      72.41000000      73.53000000      74.50000000      75.27000000      75.81000000      76.11000000      76.15000000      75.93000000      75.45000000      74.74000000      73.81000000      72.72000000      71.50000000      70.21000000      68.88000000      67.58000000      66.35000000      65.25000000      64.31000000      63.58000000      63.08000000      62.84000000      62.86000000
        78.18000000      77.96000000      77.46000000      76.72000000      75.75000000      74.60000000      73.31000000      71.92000000      70.50000000      69.09000000      67.76000000      66.54000000      65.49000000      64.65000000      64.05000000      63.71000000      63.64000000      63.85000000      64.32000000      65.03000000      65.95000000      67.05000000      68.28000000      69.58000000      70.90000000      72.20000000      73.40000000      74.48000000      75.37000000      76.04000000      76.47000000      76.63000000      76.51000000      76.13000000      75.48000000      74.61000000      73.53000000      72.28000000      70.93000000      69.52000000      68.09000000      66.72000000      65.45000000      64.32000000      63.39000000      62.69000000      62.24000000      62.06000000      62.15000000      62.52000000      63.13000000      63.98000000      65.01000000      66.19000000      67.47000000      68.79000000      70.11000000      71.36000000      72.50000000      73.47000000      74.24000000      74.78000000      75.05000000      75.06000000      74.79000000      74.26000000      73.48000000      72.48000000      71.31000000      70.00000000      68.61000000      67.19000000      65.79000000      64.48000000      63.29000000      62.28000000      61.49000000      60.94000000      60.65000000      60.64000000
        79.45000000      79.18000000      78.63000000      77.82000000      76.78000000      75.55000000      74.17000000      72.69000000      71.17000000      69.67000000      68.24000000      66.94000000      65.81000000      64.90000000      64.24000000      63.85000000      63.74000000      63.92000000      64.37000000      65.08000000      66.00000000      67.11000000      68.35000000      69.67000000      71.01000000      72.32000000      73.54000000      74.62000000      75.52000000      76.18000000      76.59000000      76.72000000      76.56000000      76.13000000      75.42000000      74.47000000      73.31000000      71.98000000      70.53000000      69.03000000      67.51000000      66.04000000      64.68000000      63.48000000      62.47000000      61.70000000      61.20000000      60.98000000      61.04000000      61.38000000      61.99000000      62.83000000      63.87000000      65.07000000      66.36000000      67.71000000      69.04000000      70.31000000      71.46000000      72.44000000      73.21000000      73.74000000      73.99000000      73.96000000      73.65000000      73.06000000      72.21000000      71.14000000      69.89000000      68.49000000      67.01000000      65.50000000      64.02000000      62.62000000      61.35000000      60.27000000      59.41000000      58.81000000      58.48000000      58.43000000