# File generated by Flopy version 3.3.5 on 03/04/2022 at 11:14:43.
BEGIN options
  PRINT_OPTION  all
  COMPLEXITY  simple
END options

BEGIN nonlinear
  OUTER_DVCLOSE  1.00000000E-09
  OUTER_MAXIMUM  500
END nonlinear

BEGIN linear
  INNER_MAXIMUM  500
  INNER_DVCLOSE  1.00000000E-09
  inner_rclose  1.00000000E-06
  LINEAR_ACCELERATION  bicgstab
END linear

