# File generated by Flopy version 3.3.5 on 03/04/2022 at 11:14:43.
BEGIN options
  READASARRAYS
END options

BEGIN period  1
  recharge
    INTERNAL  FACTOR  1.0
    3.49000000E-09  3.55000000E-09  3.60000000E-09  3.66000000E-09  3.72000000E-09  3.78000000E-09  3.83000000E-09  3.89000000E-09  3.95000000E-09  4.01000000E-09  4.06000000E-09  4.12000000E-09  4.18000000E-09  4.24000000E-09  4.30000000E-09  4.35000000E-09  4.41000000E-09  4.47000000E-09  4.53000000E-09  4.59000000E-09  4.65000000E-09  4.71000000E-09  4.76000000E-09  4.82000000E-09  4.88000000E-09  4.94000000E-09  5.00000000E-09  5.06000000E-09  5.12000000E-09  5.18000000E-09  5.24000000E-09  5.29000000E-09  5.35000000E-09  5.41000000E-09  5.47000000E-09  5.53000000E-09  5.59000000E-09  5.65000000E-09  5.70000000E-09  5.76000000E-09  5.82000000E-09  5.88000000E-09  5.94000000E-09  5.99000000E-09  6.05000000E-09  6.11000000E-09  6.17000000E-09  6.22000000E-09  6.28000000E-09  6.34000000E-09  6.40000000E-09  6.45000000E-09  6.51000000E-09  6.56000000E-09  6.62000000E-09  6.68000000E-09  6.73000000E-09  6.79000000E-09  6.84000000E-09  6.90000000E-09  6.95000000E-09  7.01000000E-09  7.06000000E-09  7.12000000E-09  7.17000000E-09  7.22000000E-09  7.28000000E-09  7.33000000E-09  7.38000000E-09  7.43000000E-09  7.49000000E-09  7.54000000E-09  7.59000000E-09  7.64000000E-09  7.69000000E-09  7.74000000E-09  7.79000000E-09  7.84000000E-09  7.89000000E-09  7.94000000E-09
    3.59000000E-09  3.65000000E-09  3.70000000E-09  3.75000000E-09  3.80000000E-09  3.85000000E-09  3.89000000E-09  3.94000000E-09  3.99000000E-09  4.04000000E-09  4.08000000E-09  4.13000000E-09  4.18000000E-09  4.23000000E-09  4.29000000E-09  4.34000000E-09  4.40000000E-09  4.45000000E-09  4.51000000E-09  4.57000000E-09  4.64000000E-09  4.70000000E-09  4.76000000E-09  4.83000000E-09  4.89000000E-09  4.96000000E-09  5.02000000E-09  5.08000000E-09  5.14000000E-09  5.21000000E-09  5.26000000E-09  5.32000000E-09  5.38000000E-09  5.43000000E-09  5.49000000E-09  5.54000000E-09  5.59000000E-09  5.64000000E-09  5.68000000E-09  5.73000000E-09  5.78000000E-09  5.83000000E-09  5.88000000E-09  5.93000000E-09  5.98000000E-09  6.03000000E-09  6.08000000E-09  6.13000000E-09  6.19000000E-09  6.25000000E-09  6.31000000E-09  6.37000000E-09  6.43000000E-09  6.49000000E-09  6.55000000E-09  6.61000000E-09  6.67000000E-09  6.73000000E-09  6.79000000E-09  6.85000000E-09  6.91000000E-09  6.96000000E-09  7.02000000E-09  7.07000000E-09  7.12000000E-09  7.17000000E-09  7.22000000E-09  7.26000000E-09  7.31000000E-09  7.35000000E-09  7.39000000E-09  7.43000000E-09  7.47000000E-09  7.52000000E-09  7.56000000E-09  7.60000000E-09  7.64000000E-09  7.69000000E-09  7.73000000E-09  7.78000000E-09
    3.70000000E-09  3.75000000E-09  3.79000000E-09  3.84000000E-09  3.88000000E-09  3.92000000E-09  3.96000000E-09  3.99000000E-09  4.03000000E-09  4.07000000E-09  4.11000000E-09  4.15000000E-09  4.19000000E-09  4.23000000E-09  4.28000000E-09  4.33000000E-09  4.38000000E-09  4.44000000E-09  4.50000000E-09  4.56000000E-09  4.63000000E-09  4.69000000E-09  4.76000000E-09  4.83000000E-09  4.90000000E-09  4.97000000E-09  5.04000000E-09  5.11000000E-09  5.17000000E-09  5.23000000E-09  5.29000000E-09  5.35000000E-09  5.40000000E-09  5.45000000E-09  5.50000000E-09  5.54000000E-09  5.58000000E-09  5.62000000E-09  5.66000000E-09  5.70000000E-09  5.74000000E-09  5.78000000E-09  5.81000000E-09  5.86000000E-09  5.90000000E-09  5.94000000E-09  5.99000000E-09  6.04000000E-09  6.10000000E-09  6.15000000E-09  6.21000000E-09  6.27000000E-09  6.34000000E-09  6.41000000E-09  6.47000000E-09  6.54000000E-09  6.61000000E-09  6.67000000E-09  6.74000000E-09  6.80000000E-09  6.86000000E-09  6.91000000E-09  6.97000000E-09  7.02000000E-09  7.07000000E-09  7.11000000E-09  7.15000000E-09  7.19000000E-09  7.22000000E-09  7.26000000E-09  7.29000000E-09  7.32000000E-09  7.35000000E-09  7.38000000E-09  7.42000000E-09  7.45000000E-09  7.49000000E-09  7.53000000E-09  7.57000000E-09  7.62000000E-09
    3.81000000E-09  3.85000000E-09  3.89000000E-09  3.93000000E-09  3.97000000E-09  4.00000000E-09  4.02000000E-09  4.05000000E-09  4.08000000E-09  4.10000000E-09  4.13000000E-09  4.16000000E-09  4.20000000E-09  4.23000000E-09  4.27000000E-09  4.32000000E-09  4.37000000E-09  4.43000000E-09  4.49000000E-09  4.55000000E-09  4.62000000E-09  4.69000000E-09  4.76000000E-09  4.84000000E-09  4.91000000E-09  4.99000000E-09  5.06000000E-09  5.13000000E-09  5.20000000E-09  5.26000000E-09  5.32000000E-09  5.38000000E-09  5.43000000E-09  5.47000000E-09  5.51000000E-09  5.55000000E-09  5.58000000E-09  5.61000000E-09  5.64000000E-09  5.67000000E-09  5.69000000E-09  5.72000000E-09  5.75000000E-09  5.78000000E-09  5.82000000E-09  5.86000000E-09  5.90000000E-09  5.95000000E-09  6.00000000E-09  6.06000000E-09  6.12000000E-09  6.18000000E-09  6.25000000E-09  6.32000000E-09  6.39000000E-09  6.46000000E-09  6.54000000E-09  6.61000000E-09  6.68000000E-09  6.74000000E-09  6.80000000E-09  6.86000000E-09  6.91000000E-09  6.96000000E-09  7.00000000E-09  7.04000000E-09  7.08000000E-09  7.11000000E-09  7.13000000E-09  7.16000000E-09  7.18000000E-09  7.20000000E-09  7.22000000E-09  7.24000000E-09  7.27000000E-09  7.29000000E-09  7.32000000E-09  7.36000000E-09  7.40000000E-09  7.44000000E-09
    3.92000000E-09  3.96000000E-09  4.00000000E-09  4.03000000E-09  4.05000000E-09  4.08000000E-09  4.09000000E-09  4.11000000E-09  4.13000000E-09  4.14000000E-09  4.16000000E-09  4.18000000E-09  4.20000000E-09  4.23000000E-09  4.27000000E-09  4.31000000E-09  4.36000000E-09  4.41000000E-09  4.47000000E-09  4.54000000E-09  4.61000000E-09  4.68000000E-09  4.76000000E-09  4.84000000E-09  4.92000000E-09  5.00000000E-09  5.08000000E-09  5.15000000E-09  5.22000000E-09  5.29000000E-09  5.35000000E-09  5.40000000E-09  5.45000000E-09  5.49000000E-09  5.52000000E-09  5.55000000E-09  5.58000000E-09  5.60000000E-09  5.61000000E-09  5.63000000E-09  5.65000000E-09  5.66000000E-09  5.68000000E-09  5.71000000E-09  5.73000000E-09  5.77000000E-09  5.80000000E-09  5.85000000E-09  5.90000000E-09  5.95000000E-09  6.02000000E-09  6.08000000E-09  6.16000000E-09  6.23000000E-09  6.31000000E-09  6.38000000E-09  6.46000000E-09  6.54000000E-09  6.61000000E-09  6.68000000E-09  6.74000000E-09  6.80000000E-09  6.85000000E-09  6.90000000E-09  6.94000000E-09  6.97000000E-09  7.00000000E-09  7.02000000E-09  7.04000000E-09  7.05000000E-09  7.06000000E-09  7.07000000E-09  7.08000000E-09  7.10000000E-09  7.11000000E-09  7.13000000E-09  7.16000000E-09  7.18000000E-09  7.22000000E-09  7.26000000E-09
    4.03000000E-09  4.07000000E-09  4.10000000E-09  4.13000000E-09  4.14000000E-09  4.16000000E-09  4.17000000E-09  4.17000000E-09  4.18000000E-09  4.18000000E-09  4.19000000E-09  4.20000000E-09  4.22000000E-09  4.24000000E-09  4.27000000E-09  4.30000000E-09  4.35000000E-09  4.40000000E-09  4.46000000E-09  4.53000000E-09  4.60000000E-09  4.68000000E-09  4.76000000E-09  4.85000000E-09  4.93000000E-09  5.02000000E-09  5.10000000E-09  5.18000000E-09  5.25000000E-09  5.31000000E-09  5.37000000E-09  5.43000000E-09  5.47000000E-09  5.50000000E-09  5.53000000E-09  5.55000000E-09  5.57000000E-09  5.58000000E-09  5.59000000E-09  5.59000000E-09  5.60000000E-09  5.61000000E-09  5.61000000E-09  5.63000000E-09  5.65000000E-09  5.67000000E-09  5.71000000E-09  5.75000000E-09  5.79000000E-09  5.85000000E-09  5.91000000E-09  5.98000000E-09  6.06000000E-09  6.14000000E-09  6.22000000E-09  6.30000000E-09  6.38000000E-09  6.46000000E-09  6.54000000E-09  6.61000000E-09  6.68000000E-09  6.74000000E-09  6.79000000E-09  6.83000000E-09  6.87000000E-09  6.89000000E-09  6.91000000E-09  6.93000000E-09  6.94000000E-09  6.94000000E-09  6.94000000E-09  6.94000000E-09  6.94000000E-09  6.95000000E-09  6.95000000E-09  6.96000000E-09  6.98000000E-09  7.00000000E-09  7.03000000E-09  7.07000000E-09
    4.15000000E-09  4.19000000E-09  4.21000000E-09  4.23000000E-09  4.24000000E-09  4.24000000E-09  4.24000000E-09  4.24000000E-09  4.23000000E-09  4.22000000E-09  4.22000000E-09  4.22000000E-09  4.23000000E-09  4.24000000E-09  4.27000000E-09  4.30000000E-09  4.34000000E-09  4.39000000E-09  4.45000000E-09  4.52000000E-09  4.60000000E-09  4.68000000E-09  4.76000000E-09  4.85000000E-09  4.94000000E-09  5.03000000E-09  5.12000000E-09  5.20000000E-09  5.27000000E-09  5.34000000E-09  5.40000000E-09  5.45000000E-09  5.49000000E-09  5.52000000E-09  5.54000000E-09  5.55000000E-09  5.56000000E-09  5.56000000E-09  5.56000000E-09  5.55000000E-09  5.55000000E-09  5.54000000E-09  5.54000000E-09  5.55000000E-09  5.56000000E-09  5.58000000E-09  5.61000000E-09  5.64000000E-09  5.69000000E-09  5.74000000E-09  5.81000000E-09  5.88000000E-09  5.96000000E-09  6.04000000E-09  6.13000000E-09  6.21000000E-09  6.30000000E-09  6.39000000E-09  6.47000000E-09  6.54000000E-09  6.61000000E-09  6.67000000E-09  6.72000000E-09  6.76000000E-09  6.79000000E-09  6.81000000E-09  6.83000000E-09  6.83000000E-09  6.83000000E-09  6.82000000E-09  6.81000000E-09  6.80000000E-09  6.79000000E-09  6.79000000E-09  6.79000000E-09  6.79000000E-09  6.80000000E-09  6.82000000E-09  6.84000000E-09  6.88000000E-09
    4.27000000E-09  4.30000000E-09  4.32000000E-09  4.33000000E-09  4.33000000E-09  4.33000000E-09  4.32000000E-09  4.30000000E-09  4.28000000E-09  4.27000000E-09  4.26000000E-09  4.25000000E-09  4.25000000E-09  4.25000000E-09  4.27000000E-09  4.30000000E-09  4.33000000E-09  4.38000000E-09  4.44000000E-09  4.51000000E-09  4.59000000E-09  4.68000000E-09  4.77000000E-09  4.86000000E-09  4.95000000E-09  5.05000000E-09  5.14000000E-09  5.22000000E-09  5.30000000E-09  5.37000000E-09  5.42000000E-09  5.47000000E-09  5.51000000E-09  5.53000000E-09  5.55000000E-09  5.55000000E-09  5.55000000E-09  5.54000000E-09  5.53000000E-09  5.51000000E-09  5.50000000E-09  5.48000000E-09  5.47000000E-09  5.47000000E-09  5.47000000E-09  5.48000000E-09  5.50000000E-09  5.54000000E-09  5.58000000E-09  5.64000000E-09  5.70000000E-09  5.77000000E-09  5.85000000E-09  5.94000000E-09  6.03000000E-09  6.12000000E-09  6.22000000E-09  6.30000000E-09  6.39000000E-09  6.47000000E-09  6.54000000E-09  6.60000000E-09  6.64000000E-09  6.68000000E-09  6.71000000E-09  6.73000000E-09  6.73000000E-09  6.73000000E-09  6.72000000E-09  6.70000000E-09  6.68000000E-09  6.66000000E-09  6.64000000E-09  6.63000000E-09  6.61000000E-09  6.61000000E-09  6.61000000E-09  6.62000000E-09  6.65000000E-09  6.68000000E-09
    4.40000000E-09  4.42000000E-09  4.44000000E-09  4.44000000E-09  4.43000000E-09  4.42000000E-09  4.40000000E-09  4.37000000E-09  4.34000000E-09  4.31000000E-09  4.29000000E-09  4.27000000E-09  4.26000000E-09  4.26000000E-09  4.27000000E-09  4.29000000E-09  4.33000000E-09  4.38000000E-09  4.44000000E-09  4.51000000E-09  4.59000000E-09  4.67000000E-09  4.77000000E-09  4.87000000E-09  4.97000000E-09  5.06000000E-09  5.16000000E-09  5.24000000E-09  5.32000000E-09  5.39000000E-09  5.45000000E-09  5.49000000E-09  5.53000000E-09  5.55000000E-09  5.55000000E-09  5.55000000E-09  5.54000000E-09  5.52000000E-09  5.50000000E-09  5.47000000E-09  5.44000000E-09  5.42000000E-09  5.40000000E-09  5.38000000E-09  5.38000000E-09  5.38000000E-09  5.40000000E-09  5.43000000E-09  5.47000000E-09  5.53000000E-09  5.59000000E-09  5.67000000E-09  5.75000000E-09  5.84000000E-09  5.93000000E-09  6.03000000E-09  6.13000000E-09  6.22000000E-09  6.31000000E-09  6.39000000E-09  6.46000000E-09  6.52000000E-09  6.57000000E-09  6.60000000E-09  6.62000000E-09  6.63000000E-09  6.63000000E-09  6.62000000E-09  6.60000000E-09  6.58000000E-09  6.55000000E-09  6.52000000E-09  6.49000000E-09  6.46000000E-09  6.44000000E-09  6.42000000E-09  6.42000000E-09  6.43000000E-09  6.45000000E-09  6.48000000E-09
    4.52000000E-09  4.54000000E-09  4.55000000E-09  4.55000000E-09  4.53000000E-09  4.51000000E-09  4.48000000E-09  4.44000000E-09  4.40000000E-09  4.36000000E-09  4.33000000E-09  4.30000000E-09  4.28000000E-09  4.27000000E-09  4.28000000E-09  4.29000000E-09  4.33000000E-09  4.37000000E-09  4.43000000E-09  4.50000000E-09  4.58000000E-09  4.67000000E-09  4.77000000E-09  4.87000000E-09  4.98000000E-09  5.08000000E-09  5.17000000E-09  5.26000000E-09  5.34000000E-09  5.41000000E-09  5.47000000E-09  5.51000000E-09  5.54000000E-09  5.56000000E-09  5.56000000E-09  5.55000000E-09  5.53000000E-09  5.50000000E-09  5.47000000E-09  5.43000000E-09  5.39000000E-09  5.35000000E-09  5.32000000E-09  5.30000000E-09  5.29000000E-09  5.29000000E-09  5.30000000E-09  5.32000000E-09  5.36000000E-09  5.41000000E-09  5.48000000E-09  5.55000000E-09  5.64000000E-09  5.74000000E-09  5.83000000E-09  5.93000000E-09  6.04000000E-09  6.13000000E-09  6.22000000E-09  6.31000000E-09  6.38000000E-09  6.44000000E-09  6.48000000E-09  6.52000000E-09  6.53000000E-09  6.54000000E-09  6.53000000E-09  6.51000000E-09  6.48000000E-09  6.45000000E-09  6.41000000E-09  6.36000000E-09  6.32000000E-09  6.29000000E-09  6.26000000E-09  6.24000000E-09  6.22000000E-09  6.23000000E-09  6.24000000E-09  6.27000000E-09
    4.65000000E-09  4.67000000E-09  4.67000000E-09  4.66000000E-09  4.63000000E-09  4.60000000E-09  4.56000000E-09  4.51000000E-09  4.46000000E-09  4.41000000E-09  4.37000000E-09  4.33000000E-09  4.30000000E-09  4.29000000E-09  4.28000000E-09  4.30000000E-09  4.32000000E-09  4.37000000E-09  4.43000000E-09  4.50000000E-09  4.58000000E-09  4.67000000E-09  4.78000000E-09  4.88000000E-09  4.99000000E-09  5.09000000E-09  5.19000000E-09  5.28000000E-09  5.37000000E-09  5.44000000E-09  5.49000000E-09  5.53000000E-09  5.56000000E-09  5.57000000E-09  5.56000000E-09  5.55000000E-09  5.52000000E-09  5.48000000E-09  5.43000000E-09  5.38000000E-09  5.33000000E-09  5.29000000E-09  5.25000000E-09  5.22000000E-09  5.19000000E-09  5.19000000E-09  5.19000000E-09  5.21000000E-09  5.25000000E-09  5.30000000E-09  5.36000000E-09  5.44000000E-09  5.53000000E-09  5.63000000E-09  5.73000000E-09  5.84000000E-09  5.94000000E-09  6.04000000E-09  6.14000000E-09  6.22000000E-09  6.29000000E-09  6.35000000E-09  6.40000000E-09  6.43000000E-09  6.44000000E-09  6.44000000E-09  6.42000000E-09  6.40000000E-09  6.36000000E-09  6.31000000E-09  6.26000000E-09  6.21000000E-09  6.16000000E-09  6.11000000E-09  6.07000000E-09  6.04000000E-09  6.03000000E-09  6.02000000E-09  6.03000000E-09  6.06000000E-09
    4.78000000E-09  4.79000000E-09  4.79000000E-09  4.77000000E-09  4.74000000E-09  4.69000000E-09  4.64000000E-09  4.58000000E-09  4.52000000E-09  4.46000000E-09  4.41000000E-09  4.36000000E-09  4.32000000E-09  4.30000000E-09  4.29000000E-09  4.30000000E-09  4.32000000E-09  4.36000000E-09  4.42000000E-09  4.49000000E-09  4.58000000E-09  4.68000000E-09  4.78000000E-09  4.89000000E-09  5.00000000E-09  5.11000000E-09  5.21000000E-09  5.31000000E-09  5.39000000E-09  5.46000000E-09  5.51000000E-09  5.55000000E-09  5.57000000E-09  5.58000000E-09  5.57000000E-09  5.54000000E-09  5.50000000E-09  5.45000000E-09  5.40000000E-09  5.34000000E-09  5.28000000E-09  5.22000000E-09  5.17000000E-09  5.13000000E-09  5.10000000E-09  5.08000000E-09  5.08000000E-09  5.10000000E-09  5.13000000E-09  5.18000000E-09  5.25000000E-09  5.33000000E-09  5.42000000E-09  5.52000000E-09  5.63000000E-09  5.74000000E-09  5.84000000E-09  5.95000000E-09  6.04000000E-09  6.13000000E-09  6.21000000E-09  6.27000000E-09  6.31000000E-09  6.33000000E-09  6.34000000E-09  6.34000000E-09  6.31000000E-09  6.28000000E-09  6.23000000E-09  6.18000000E-09  6.11000000E-09  6.05000000E-09  5.99000000E-09  5.93000000E-09  5.89000000E-09  5.85000000E-09  5.82000000E-09  5.81000000E-09  5.82000000E-09  5.84000000E-09
    4.91000000E-09  4.92000000E-09  4.91000000E-09  4.88000000E-09  4.84000000E-09  4.79000000E-09  4.73000000E-09  4.66000000E-09  4.59000000E-09  4.52000000E-09  4.45000000E-09  4.39000000E-09  4.35000000E-09  4.32000000E-09  4.30000000E-09  4.30000000E-09  4.32000000E-09  4.36000000E-09  4.42000000E-09  4.49000000E-09  4.58000000E-09  4.68000000E-09  4.78000000E-09  4.90000000E-09  5.01000000E-09  5.12000000E-09  5.23000000E-09  5.33000000E-09  5.41000000E-09  5.48000000E-09  5.53000000E-09  5.57000000E-09  5.59000000E-09  5.59000000E-09  5.57000000E-09  5.53000000E-09  5.49000000E-09  5.43000000E-09  5.36000000E-09  5.29000000E-09  5.22000000E-09  5.15000000E-09  5.09000000E-09  5.04000000E-09  5.00000000E-09  4.98000000E-09  4.98000000E-09  4.99000000E-09  5.02000000E-09  5.07000000E-09  5.13000000E-09  5.21000000E-09  5.31000000E-09  5.41000000E-09  5.52000000E-09  5.63000000E-09  5.74000000E-09  5.85000000E-09  5.95000000E-09  6.04000000E-09  6.11000000E-09  6.17000000E-09  6.22000000E-09  6.24000000E-09  6.24000000E-09  6.23000000E-09  6.20000000E-09  6.16000000E-09  6.10000000E-09  6.04000000E-09  5.96000000E-09  5.89000000E-09  5.82000000E-09  5.75000000E-09  5.70000000E-09  5.65000000E-09  5.62000000E-09  5.60000000E-09  5.60000000E-09  5.62000000E-09
    5.04000000E-09  5.04000000E-09  5.03000000E-09  4.99000000E-09  4.95000000E-09  4.88000000E-09  4.81000000E-09  4.73000000E-09  4.65000000E-09  4.57000000E-09  4.49000000E-09  4.43000000E-09  4.37000000E-09  4.33000000E-09  4.31000000E-09  4.31000000E-09  4.33000000E-09  4.36000000E-09  4.42000000E-09  4.49000000E-09  4.58000000E-09  4.68000000E-09  4.79000000E-09  4.90000000E-09  5.02000000E-09  5.14000000E-09  5.25000000E-09  5.34000000E-09  5.43000000E-09  5.50000000E-09  5.55000000E-09  5.59000000E-09  5.60000000E-09  5.59000000E-09  5.57000000E-09  5.53000000E-09  5.47000000E-09  5.40000000E-09  5.33000000E-09  5.24000000E-09  5.16000000E-09  5.09000000E-09  5.01000000E-09  4.96000000E-09  4.91000000E-09  4.88000000E-09  4.87000000E-09  4.88000000E-09  4.90000000E-09  4.95000000E-09  5.02000000E-09  5.10000000E-09  5.19000000E-09  5.30000000E-09  5.41000000E-09  5.53000000E-09  5.64000000E-09  5.75000000E-09  5.86000000E-09  5.95000000E-09  6.02000000E-09  6.08000000E-09  6.12000000E-09  6.14000000E-09  6.14000000E-09  6.12000000E-09  6.09000000E-09  6.03000000E-09  5.97000000E-09  5.89000000E-09  5.81000000E-09  5.73000000E-09  5.65000000E-09  5.57000000E-09  5.50000000E-09  5.45000000E-09  5.41000000E-09  5.39000000E-09  5.39000000E-09  5.40000000E-09
    5.17000000E-09  5.17000000E-09  5.15000000E-09  5.11000000E-09  5.05000000E-09  4.98000000E-09  4.90000000E-09  4.81000000E-09  4.72000000E-09  4.63000000E-09  4.54000000E-09  4.46000000E-09  4.40000000E-09  4.35000000E-09  4.33000000E-09  4.32000000E-09  4.33000000E-09  4.36000000E-09  4.42000000E-09  4.49000000E-09  4.58000000E-09  4.68000000E-09  4.79000000E-09  4.91000000E-09  5.03000000E-09  5.15000000E-09  5.26000000E-09  5.36000000E-09  5.45000000E-09  5.52000000E-09  5.57000000E-09  5.60000000E-09  5.61000000E-09  5.60000000E-09  5.57000000E-09  5.52000000E-09  5.45000000E-09  5.37000000E-09  5.29000000E-09  5.20000000E-09  5.10000000E-09  5.02000000E-09  4.94000000E-09  4.87000000E-09  4.81000000E-09  4.78000000E-09  4.76000000E-09  4.76000000E-09  4.79000000E-09  4.83000000E-09  4.90000000E-09  4.98000000E-09  5.08000000E-09  5.19000000E-09  5.30000000E-09  5.42000000E-09  5.54000000E-09  5.65000000E-09  5.76000000E-09  5.85000000E-09  5.93000000E-09  5.98000000E-09  6.02000000E-09  6.04000000E-09  6.03000000E-09  6.01000000E-09  5.97000000E-09  5.91000000E-09  5.83000000E-09  5.75000000E-09  5.66000000E-09  5.56000000E-09  5.47000000E-09  5.38000000E-09  5.31000000E-09  5.25000000E-09  5.20000000E-09  5.17000000E-09  5.17000000E-09  5.18000000E-09
    5.30000000E-09  5.29000000E-09  5.27000000E-09  5.22000000E-09  5.16000000E-09  5.08000000E-09  4.98000000E-09  4.88000000E-09  4.78000000E-09  4.68000000E-09  4.59000000E-09  4.50000000E-09  4.43000000E-09  4.37000000E-09  4.34000000E-09  4.33000000E-09  4.33000000E-09  4.37000000E-09  4.42000000E-09  4.49000000E-09  4.58000000E-09  4.69000000E-09  4.80000000E-09  4.92000000E-09  5.05000000E-09  5.17000000E-09  5.28000000E-09  5.38000000E-09  5.47000000E-09  5.54000000E-09  5.59000000E-09  5.62000000E-09  5.62000000E-09  5.60000000E-09  5.57000000E-09  5.51000000E-09  5.43000000E-09  5.35000000E-09  5.25000000E-09  5.15000000E-09  5.05000000E-09  4.95000000E-09  4.86000000E-09  4.78000000E-09  4.72000000E-09  4.67000000E-09  4.65000000E-09  4.65000000E-09  4.67000000E-09  4.72000000E-09  4.78000000E-09  4.86000000E-09  4.96000000E-09  5.07000000E-09  5.19000000E-09  5.31000000E-09  5.44000000E-09  5.55000000E-09  5.66000000E-09  5.75000000E-09  5.83000000E-09  5.89000000E-09  5.92000000E-09  5.94000000E-09  5.93000000E-09  5.90000000E-09  5.85000000E-09  5.78000000E-09  5.69000000E-09  5.60000000E-09  5.50000000E-09  5.39000000E-09  5.29000000E-09  5.20000000E-09  5.11000000E-09  5.04000000E-09  4.99000000E-09  4.96000000E-09  4.95000000E-09  4.96000000E-09
    5.43000000E-09  5.42000000E-09  5.39000000E-09  5.33000000E-09  5.26000000E-09  5.17000000E-09  5.07000000E-09  4.96000000E-09  4.85000000E-09  4.74000000E-09  4.63000000E-09  4.54000000E-09  4.46000000E-09  4.40000000E-09  4.35000000E-09  4.34000000E-09  4.34000000E-09  4.37000000E-09  4.42000000E-09  4.49000000E-09  4.58000000E-09  4.69000000E-09  4.81000000E-09  4.93000000E-09  5.06000000E-09  5.18000000E-09  5.30000000E-09  5.40000000E-09  5.49000000E-09  5.56000000E-09  5.60000000E-09  5.63000000E-09  5.63000000E-09  5.61000000E-09  5.56000000E-09  5.50000000E-09  5.41000000E-09  5.32000000E-09  5.21000000E-09  5.10000000E-09  4.99000000E-09  4.88000000E-09  4.78000000E-09  4.69000000E-09  4.62000000E-09  4.57000000E-09  4.54000000E-09  4.54000000E-09  4.56000000E-09  4.60000000E-09  4.66000000E-09  4.75000000E-09  4.85000000E-09  4.96000000E-09  5.08000000E-09  5.21000000E-09  5.33000000E-09  5.45000000E-09  5.56000000E-09  5.65000000E-09  5.73000000E-09  5.79000000E-09  5.82000000E-09  5.83000000E-09  5.82000000E-09  5.78000000E-09  5.72000000E-09  5.65000000E-09  5.55000000E-09  5.45000000E-09  5.34000000E-09  5.23000000E-09  5.11000000E-09  5.01000000E-09  4.92000000E-09  4.84000000E-09  4.78000000E-09  4.74000000E-09  4.72000000E-09  4.73000000E-09
    5.56000000E-09  5.55000000E-09  5.51000000E-09  5.45000000E-09  5.37000000E-09  5.27000000E-09  5.16000000E-09  5.04000000E-09  4.92000000E-09  4.79000000E-09  4.68000000E-09  4.58000000E-09  4.49000000E-09  4.42000000E-09  4.37000000E-09  4.35000000E-09  4.35000000E-09  4.37000000E-09  4.42000000E-09  4.50000000E-09  4.59000000E-09  4.69000000E-09  4.81000000E-09  4.94000000E-09  5.07000000E-09  5.19000000E-09  5.31000000E-09  5.42000000E-09  5.50000000E-09  5.57000000E-09  5.62000000E-09  5.64000000E-09  5.64000000E-09  5.61000000E-09  5.56000000E-09  5.49000000E-09  5.39000000E-09  5.29000000E-09  5.17000000E-09  5.05000000E-09  4.93000000E-09  4.81000000E-09  4.70000000E-09  4.60000000E-09  4.53000000E-09  4.47000000E-09  4.44000000E-09  4.43000000E-09  4.44000000E-09  4.48000000E-09  4.55000000E-09  4.63000000E-09  4.73000000E-09  4.85000000E-09  4.97000000E-09  5.10000000E-09  5.22000000E-09  5.35000000E-09  5.46000000E-09  5.55000000E-09  5.63000000E-09  5.68000000E-09  5.72000000E-09  5.72000000E-09  5.71000000E-09  5.66000000E-09  5.60000000E-09  5.51000000E-09  5.41000000E-09  5.30000000E-09  5.18000000E-09  5.06000000E-09  4.94000000E-09  4.82000000E-09  4.72000000E-09  4.63000000E-09  4.57000000E-09  4.52000000E-09  4.50000000E-09  4.51000000E-09
    5.69000000E-09  5.67000000E-09  5.63000000E-09  5.56000000E-09  5.47000000E-09  5.36000000E-09  5.24000000E-09  5.12000000E-09  4.98000000E-09  4.85000000E-09  4.73000000E-09  4.61000000E-09  4.52000000E-09  4.44000000E-09  4.39000000E-09  4.36000000E-09  4.36000000E-09  4.38000000E-09  4.43000000E-09  4.50000000E-09  4.59000000E-09  4.70000000E-09  4.82000000E-09  4.95000000E-09  5.08000000E-09  5.21000000E-09  5.33000000E-09  5.43000000E-09  5.52000000E-09  5.59000000E-09  5.63000000E-09  5.65000000E-09  5.65000000E-09  5.61000000E-09  5.55000000E-09  5.47000000E-09  5.37000000E-09  5.26000000E-09  5.13000000E-09  5.00000000E-09  4.87000000E-09  4.74000000E-09  4.62000000E-09  4.52000000E-09  4.43000000E-09  4.37000000E-09  4.33000000E-09  4.32000000E-09  4.33000000E-09  4.37000000E-09  4.43000000E-09  4.51000000E-09  4.62000000E-09  4.73000000E-09  4.86000000E-09  4.99000000E-09  5.12000000E-09  5.24000000E-09  5.35000000E-09  5.45000000E-09  5.53000000E-09  5.58000000E-09  5.61000000E-09  5.62000000E-09  5.59000000E-09  5.54000000E-09  5.47000000E-09  5.38000000E-09  5.27000000E-09  5.15000000E-09  5.02000000E-09  4.89000000E-09  4.76000000E-09  4.63000000E-09  4.52000000E-09  4.43000000E-09  4.36000000E-09  4.31000000E-09  4.28000000E-09  4.29000000E-09
    5.82000000E-09  5.80000000E-09  5.75000000E-09  5.67000000E-09  5.58000000E-09  5.46000000E-09  5.33000000E-09  5.19000000E-09  5.05000000E-09  4.91000000E-09  4.78000000E-09  4.65000000E-09  4.55000000E-09  4.46000000E-09  4.40000000E-09  4.37000000E-09  4.36000000E-09  4.38000000E-09  4.43000000E-09  4.50000000E-09  4.60000000E-09  4.71000000E-09  4.83000000E-09  4.96000000E-09  5.09000000E-09  5.22000000E-09  5.34000000E-09  5.45000000E-09  5.54000000E-09  5.60000000E-09  5.65000000E-09  5.66000000E-09  5.65000000E-09  5.61000000E-09  5.55000000E-09  5.46000000E-09  5.35000000E-09  5.23000000E-09  5.09000000E-09  4.95000000E-09  4.81000000E-09  4.67000000E-09  4.54000000E-09  4.43000000E-09  4.34000000E-09  4.27000000E-09  4.22000000E-09  4.21000000E-09  4.22000000E-09  4.25000000E-09  4.31000000E-09  4.40000000E-09  4.50000000E-09  4.62000000E-09  4.75000000E-09  4.88000000E-09  5.01000000E-09  5.14000000E-09  5.25000000E-09  5.35000000E-09  5.42000000E-09  5.48000000E-09  5.51000000E-09  5.51000000E-09  5.48000000E-09  5.43000000E-09  5.35000000E-09  5.25000000E-09  5.13000000E-09  5.00000000E-09  4.86000000E-09  4.72000000E-09  4.58000000E-09  4.45000000E-09  4.33000000E-09  4.23000000E-09  4.15000000E-09  4.09000000E-09  4.06000000E-09  4.06000000E-09
    5.95000000E-09  5.92000000E-09  5.86000000E-09  5.78000000E-09  5.68000000E-09  5.55000000E-09  5.42000000E-09  5.27000000E-09  5.12000000E-09  4.97000000E-09  4.82000000E-09  4.69000000E-09  4.58000000E-09  4.49000000E-09  4.42000000E-09  4.38000000E-09  4.37000000E-09  4.39000000E-09  4.44000000E-09  4.51000000E-09  4.60000000E-09  4.71000000E-09  4.84000000E-09  4.97000000E-09  5.10000000E-09  5.23000000E-09  5.35000000E-09  5.46000000E-09  5.55000000E-09  5.62000000E-09  5.66000000E-09  5.67000000E-09  5.66000000E-09  5.61000000E-09  5.54000000E-09  5.45000000E-09  5.33000000E-09  5.20000000E-09  5.05000000E-09  4.90000000E-09  4.75000000E-09  4.60000000E-09  4.47000000E-09  4.35000000E-09  4.25000000E-09  4.17000000E-09  4.12000000E-09  4.10000000E-09  4.10000000E-09  4.14000000E-09  4.20000000E-09  4.28000000E-09  4.39000000E-09  4.51000000E-09  4.64000000E-09  4.77000000E-09  4.90000000E-09  5.03000000E-09  5.15000000E-09  5.24000000E-09  5.32000000E-09  5.37000000E-09  5.40000000E-09  5.40000000E-09  5.36000000E-09  5.31000000E-09  5.22000000E-09  5.11000000E-09  4.99000000E-09  4.85000000E-09  4.70000000E-09  4.55000000E-09  4.40000000E-09  4.26000000E-09  4.14000000E-09  4.03000000E-09  3.94000000E-09  3.88000000E-09  3.85000000E-09  3.84000000E-09
    6.07000000E-09  6.04000000E-09  5.98000000E-09  5.89000000E-09  5.78000000E-09  5.65000000E-09  5.50000000E-09  5.34000000E-09  5.18000000E-09  5.02000000E-09  4.87000000E-09  4.73000000E-09  4.61000000E-09  4.52000000E-09  4.44000000E-09  4.40000000E-09  4.39000000E-09  4.40000000E-09  4.44000000E-09  4.51000000E-09  4.61000000E-09  4.72000000E-09  4.84000000E-09  4.98000000E-09  5.11000000E-09  5.24000000E-09  5.37000000E-09  5.48000000E-09  5.57000000E-09  5.63000000E-09  5.67000000E-09  5.68000000E-09  5.66000000E-09  5.61000000E-09  5.53000000E-09  5.43000000E-09  5.31000000E-09  5.17000000E-09  5.01000000E-09  4.85000000E-09  4.69000000E-09  4.54000000E-09  4.39000000E-09  4.26000000E-09  4.16000000E-09  4.07000000E-09  4.02000000E-09  3.99000000E-09  3.99000000E-09  4.03000000E-09  4.09000000E-09  4.17000000E-09  4.27000000E-09  4.40000000E-09  4.53000000E-09  4.66000000E-09  4.80000000E-09  4.93000000E-09  5.04000000E-09  5.14000000E-09  5.22000000E-09  5.27000000E-09  5.29000000E-09  5.29000000E-09  5.25000000E-09  5.19000000E-09  5.10000000E-09  4.98000000E-09  4.85000000E-09  4.70000000E-09  4.54000000E-09  4.38000000E-09  4.23000000E-09  4.08000000E-09  3.94000000E-09  3.83000000E-09  3.74000000E-09  3.67000000E-09  3.63000000E-09  3.63000000E-09
    6.19000000E-09  6.16000000E-09  6.09000000E-09  6.00000000E-09  5.88000000E-09  5.74000000E-09  5.59000000E-09  5.42000000E-09  5.25000000E-09  5.08000000E-09  4.92000000E-09  4.77000000E-09  4.65000000E-09  4.54000000E-09  4.46000000E-09  4.42000000E-09  4.40000000E-09  4.41000000E-09  4.45000000E-09  4.52000000E-09  4.61000000E-09  4.72000000E-09  4.85000000E-09  4.99000000E-09  5.12000000E-09  5.26000000E-09  5.38000000E-09  5.49000000E-09  5.58000000E-09  5.64000000E-09  5.68000000E-09  5.69000000E-09  5.66000000E-09  5.61000000E-09  5.53000000E-09  5.42000000E-09  5.29000000E-09  5.14000000E-09  4.97000000E-09  4.81000000E-09  4.64000000E-09  4.47000000E-09  4.32000000E-09  4.18000000E-09  4.07000000E-09  3.98000000E-09  3.92000000E-09  3.89000000E-09  3.89000000E-09  3.92000000E-09  3.97000000E-09  4.06000000E-09  4.16000000E-09  4.29000000E-09  4.42000000E-09  4.56000000E-09  4.69000000E-09  4.82000000E-09  4.94000000E-09  5.04000000E-09  5.11000000E-09  5.16000000E-09  5.19000000E-09  5.18000000E-09  5.14000000E-09  5.07000000E-09  4.97000000E-09  4.85000000E-09  4.71000000E-09  4.55000000E-09  4.39000000E-09  4.22000000E-09  4.05000000E-09  3.90000000E-09  3.75000000E-09  3.63000000E-09  3.53000000E-09  3.46000000E-09  3.42000000E-09  3.41000000E-09