# File generated by Flopy version 3.3.5 on 03/04/2022 at 11:19:06.
BEGIN options
  PRINT_FLOWS
  BUDGET  FILEOUT  gwf-uzt-2d-mf6.uzf.bud
END options

BEGIN dimensions
  NUZFCELLS  760
  NTRAILWAVES  15
  NWAVESETS  40
END dimensions

BEGIN packagedata
  1  1 1 2  1  39       0.10000000       0.50000000       0.10000000       0.45000000       0.10500000       4.00000000
  2  1 1 3  1  40       0.10000000       0.50000000       0.10000000       0.45000000       0.10500000       4.00000000
  3  1 1 4  1  41       0.10000000       0.50000000       0.10000000       0.45000000       0.10500000       4.00000000
  4  1 1 5  1  42       0.10000000       0.50000000       0.10000000       0.45000000       0.10500000       4.00000000
  5  1 1 6  1  43       0.10000000       0.50000000       0.10000000       0.45000000       0.10500000       4.00000000
  6  1 1 7  1  44       0.10000000       0.50000000       0.10000000       0.45000000       0.10500000       4.00000000
  7  1 1 8  1  45       0.10000000       0.50000000       0.10000000       0.45000000       0.10500000       4.00000000
  8  1 1 9  1  46       0.10000000       0.50000000       0.10000000       0.45000000       0.10500000       4.00000000
  9  1 1 10  1  47       0.10000000       0.50000000       0.10000000       0.45000000       0.10500000       4.00000000
  10  1 1 11  1  48       0.10000000       0.50000000       0.10000000       0.45000000       0.10500000       4.00000000
  11  1 1 12  1  49       0.10000000       0.50000000       0.10000000       0.45000000       0.10500000       4.00000000
  12  1 1 13  1  50       0.10000000       0.50000000       0.10000000       0.45000000       0.10500000       4.00000000
  13  1 1 14  1  51       0.10000000       0.50000000       0.10000000       0.45000000       0.10500000       4.00000000
  14  1 1 15  1  52       0.10000000       0.50000000       0.10000000       0.45000000       0.10500000       4.00000000
  15  1 1 16  1  53       0.10000000       0.50000000       0.10000000       0.45000000       0.10500000       4.00000000
  16  1 1 17  1  54       0.10000000       0.50000000       0.10000000       0.45000000       0.10500000       4.00000000
  17  1 1 18  1  55       0.10000000       0.50000000       0.10000000       0.45000000       0.10500000       4.00000000
  18  1 1 19  1  56       0.10000000       0.50000000       0.10000000       0.45000000       0.10500000       4.00000000
  19  1 1 20  1  57       0.10000000       0.50000000       0.10000000       0.45000000       0.10500000       4.00000000
  20  1 1 21  1  58       0.10000000       0.50000000       0.10000000       0.45000000       0.10500000       4.00000000
  21  1 1 22  1  59       0.10000000       0.50000000       0.10000000       0.45000000       0.10500000       4.00000000
  22  1 1 23  1  60       0.10000000       0.50000000       0.10000000       0.45000000       0.10500000       4.00000000
  23  1 1 24  1  61       0.10000000       0.50000000       0.10000000       0.45000000       0.10500000       4.00000000
  24  1 1 25  1  62       0.10000000       0.50000000       0.10000000       0.45000000       0.10500000       4.00000000
  25  1 1 26  1  63       0.10000000       0.50000000       0.10000000       0.45000000       0.10500000       4.00000000
  26  1 1 27  1  64       0.10000000       0.50000000       0.10000000       0.45000000       0.10500000       4.00000000
  27  1 1 28  1  65       0.10000000       0.50000000       0.10000000       0.45000000       0.10500000       4.00000000
  28  1 1 29  1  66       0.10000000       0.50000000       0.10000000       0.45000000       0.10500000       4.00000000
  29  1 1 30  1  67       0.10000000       0.50000000       0.10000000       0.45000000       0.10500000       4.00000000
  30  1 1 31  1  68       0.10000000       0.50000000       0.10000000       0.45000000       0.10500000       4.00000000
  31  1 1 32  1  69       0.10000000       0.50000000       0.10000000       0.45000000       0.10500000       4.00000000
  32  1 1 33  1  70       0.10000000       0.50000000       0.10000000       0.45000000       0.10500000       4.00000000
  33  1 1 34  1  71       0.10000000       0.50000000       0.10000000       0.45000000       0.10500000       4.00000000
  34  1 1 35  1  72       0.10000000       0.50000000       0.10000000       0.45000000       0.10500000       4.00000000
  35  1 1 36  1  73       0.10000000       0.50000000       0.10000000       0.45000000       0.10500000       4.00000000
  36  1 1 37  1  74       0.10000000       0.50000000       0.10000000       0.45000000       0.10500000       4.00000000
  37  1 1 38  1  75       0.10000000       0.50000000       0.10000000       0.45000000       0.10500000       4.00000000
  38  1 1 39  1  76       0.10000000       0.50000000       0.10000000       0.45000000       0.10500000       4.00000000
  39  2 1 2  0  77       0.00100000       0.50000000       0.10000000       0.45000000       0.10500000       4.00000000
  40  2 1 3  0  78       0.00100000       0.50000000       0.10000000       0.45000000       0.10500000       4.00000000
  41  2 1 4  0  79       0.00100000       0.50000000       0.10000000       0.45000000       0.10500000       4.00000000
  42  2 1 5  0  80       0.00100000       0.50000000       0.10000000       0.45000000       0.10500000       4.00000000
  43  2 1 6  0  81       0.00100000       0.50000000       0.10000000       0.45000000       0.10500000       4.00000000
  44  2 1 7  0  82       0.00100000       0.50000000       0.10000000       0.45000000       0.10500000       4.00000000
  45  2 1 8  0  83       0.00100000       0.50000000       0.10000000       0.45000000       0.10500000       4.00000000
  46  2 1 9  0  84       0.00100000       0.50000000       0.10000000       0.45000000       0.10500000       4.00000000
  47  2 1 10  0  85       0.00100000       0.50000000       0.10000000       0.45000000       0.10500000       4.00000000
  48  2 1 11  0  86       0.00100000       0.50000000       0.10000000       0.45000000       0.10500000       4.00000000
  49  2 1 12  0  87       0.00100000       0.50000000       0.10000000       0.45000000       0.10500000       4.00000000
  50  2 1 13  0  88       0.00100000       0.50000000       0.10000000       0.45000000       0.10500000       4.00000000
  51  2 1 14  0  89       0.00100000       0.50000000       0.10000000       0.45000000       0.10500000       4.00000000
  52  2 1 15  0  90       0.00100000       0.50000000       0.10000000       0.45000000       0.10500000       4.00000000
  53  2 1 16  0  91       0.00100000       0.50000000       0.10000000       0.45000000       0.10500000       4.00000000
  54  2 1 17  0  92       0.00100000       0.50000000       0.10000000       0.45000000       0.10500000       4.00000000
  55  2 1 18  0  93       0.00100000       0.50000000       0.10000000       0.45000000       0.10500000       4.00000000
  56  2 1 19  0  94       0.00100000       0.50000000       0.10000000       0.45000000       0.10500000       4.00000000
  57  2 1 20  0  95       0.00100000       0.50000000       0.10000000       0.45000000       0.10500000       4.00000000
  58  2 1 21  0  96       0.00100000       0.50000000       0.10000000       0.45000000       0.10500000       4.00000000
  59  2 1 22  0  97       0.00100000       0.50000000       0.10000000       0.45000000       0.10500000       4.00000000
  60  2 1 23  0  98       0.00100000       0.50000000       0.10000000       0.45000000       0.10500000       4.00000000
  61  2 1 24  0  99       0.00100000       0.50000000       0.10000000       0.45000000       0.10500000       4.00000000
  62  2 1 25  0  100       0.00100000       0.50000000       0.10000000       0.45000000       0.10500000       4.00000000
  63  2 1 26  0  101       0.00100000       0.50000000       0.10000000       0.45000000       0.10500000       4.00000000
  64  2 1 27  0  102       0.00100000       0.50000000       0.10000000       0.45000000       0.10500000       4.00000000
  65  2 1 28  0  103       0.00100000       0.50000000       0.10000000       0.45000000       0.10500000       4.00000000
  66  2 1 29  0  104       0.00100000       0.50000000       0.10000000       0.45000000       0.10500000       4.00000000
  67  2 1 30  0  105       0.00100000       0.50000000       0.10000000       0.45000000       0.10500000       4.00000000
  68  2 1 31  0  106       0.00100000       0.50000000       0.10000000       0.45000000       0.10500000       4.00000000
  69  2 1 32  0  107       0.00100000       0.50000000       0.10000000       0.45000000       0.10500000       4.00000000
  70  2 1 33  0  108       0.00100000       0.50000000       0.10000000       0.45000000       0.10500000       4.00000000
  71  2 1 34  0  109       0.00100000       0.50000000       0.10000000       0.45000000       0.10500000       4.00000000
  72  2 1 35  0  110       0.00100000       0.50000000       0.10000000       0.45000000       0.10500000       4.00000000
  73  2 1 36  0  111       0.00100000       0.50000000       0.10000000       0.45000000       0.10500000       4.00000000
  74  2 1 37  0  112       0.00100000       0.50000000       0.10000000       0.45000000       0.10500000       4.00000000
  75  2 1 38  0  113       0.00100000       0.50000000       0.10000000       0.45000000       0.10500000       4.00000000
  76  2 1 39  0  114       0.00100000       0.50000000       0.10000000       0.45000000       0.10500000       4.00000000
  77  3 1 2  0  115       0.00100000       0.50000000       0.10000000       0.45000000       0.10500000       4.00000000
  78  3 1 3  0  116       0.00100000       0.50000000       0.10000000       0.45000000       0.10500000       4.00000000
  79  3 1 4  0  117       0.00100000       0.50000000       0.10000000       0.45000000       0.10500000       4.00000000
  80  3 1 5  0  118       0.00100000       0.50000000       0.10000000       0.45000000       0.10500000       4.00000000
  81  3 1 6  0  119       0.00100000       0.50000000       0.10000000       0.45000000       0.10500000       4.00000000
  82  3 1 7  0  120       0.00100000       0.50000000       0.10000000       0.45000000       0.10500000       4.00000000
  83  3 1 8  0  121       0.00100000       0.50000000       0.10000000       0.45000000       0.10500000       4.00000000
  84  3 1 9  0  122       0.00100000       0.50000000       0.10000000       0.45000000       0.10500000       4.00000000
  85  3 1 10  0  123       0.00100000       0.50000000       0.10000000       0.45000000       0.10500000       4.00000000
  86  3 1 11  0  124       0.00100000       0.50000000       0.10000000       0.45000000       0.10500000       4.00000000
  87  3 1 12  0  125       0.00100000       0.50000000       0.10000000       0.45000000       0.10500000       4.00000000
  88  3 1 13  0  126       0.00100000       0.50000000       0.10000000       0.45000000       0.10500000       4.00000000
  89  3 1 14  0  127       0.00100000       0.50000000       0.10000000       0.45000000       0.10500000       4.00000000
  90  3 1 15  0  128       0.00100000       0.50000000       0.10000000       0.45000000       0.10500000       4.00000000
  91  3 1 16  0  129       0.00100000       0.50000000       0.10000000       0.45000000       0.10500000       4.00000000
  92  3 1 17  0  130       0.00100000       0.50000000       0.10000000       0.45000000       0.10500000       4.00000000
  93  3 1 18  0  131       0.00100000       0.50000000       0.10000000       0.45000000       0.10500000       4.00000000
  94  3 1 19  0  132       0.00100000       0.50000000       0.10000000       0.45000000       0.10500000       4.00000000
  95  3 1 20  0  133       0.00100000       0.50000000       0.10000000       0.45000000       0.10500000       4.00000000
  96  3 1 21  0  134       0.00100000       0.50000000       0.10000000       0.45000000       0.10500000       4.00000000
  97  3 1 22  0  135       0.00100000       0.50000000       0.10000000       0.45000000       0.10500000       4.00000000
  98  3 1 23  0  136       0.00100000       0.50000000       0.10000000       0.45000000       0.10500000       4.00000000
  99  3 1 24  0  137       0.00100000       0.50000000       0.10000000       0.45000000       0.10500000       4.00000000
  100  3 1 25  0  138       0.00100000       0.50000000       0.10000000       0.45000000       0.10500000       4.00000000
  101  3 1 26  0  139       0.00100000       0.50000000       0.10000000       0.45000000       0.10500000       4.00000000
  102  3 1 27  0  140       0.00100000       0.50000000       0.10000000       0.45000000       0.10500000       4.00000000
  103  3 1 28  0  141       0.00100000       0.50000000       0.10000000       0.45000000       0.10500000       4.00000000
  104  3 1 29  0  142       0.00100000       0.50000000       0.10000000       0.45000000       0.10500000       4.00000000
  105  3 1 30  0  143       0.00100000       0.50000000       0.10000000       0.45000000       0.10500000       4.00000000
  106  3 1 31  0  144       0.00100000       0.50000000       0.10000000       0.45000000       0.10500000       4.00000000
  107  3 1 32  0  145       0.00100000       0.50000000       0.10000000       0.45000000       0.10500000       4.00000000
  108  3 1 33  0  146       0.00100000       0.50000000       0.10000000       0.45000000       0.10500000       4.00000000
  109  3 1 34  0  147       0.00100000       0.50000000       0.10000000       0.45000000       0.10500000       4.00000000
  110  3 1 35  0  148       0.00100000       0.50000000       0.10000000       0.45000000       0.10500000       4.00000000
  111  3 1 36  0  149       0.00100000       0.50000000       0.10000000       0.45000000       0.10500000       4.00000000
  112  3 1 37  0  150       0.00100000       0.50000000       0.10000000       0.45000000       0.10500000       4.00000000
  113  3 1 38  0  151       0.00100000       0.50000000       0.10000000       0.45000000       0.10500000       4.00000000
  114  3 1 39  0  152       0.00100000       0.50000000       0.10000000       0.45000000       0.10500000       4.00000000
  115  4 1 2  0  153       0.00100000       0.50000000       0.10000000       0.45000000       0.10500000       4.00000000
  116  4 1 3  0  154       0.00100000       0.50000000       0.10000000       0.45000000       0.10500000       4.00000000
  117  4 1 4  0  155       0.00100000       0.50000000       0.10000000       0.45000000       0.10500000       4.00000000
  118  4 1 5  0  156       0.00100000       0.50000000       0.10000000       0.45000000       0.10500000       4.00000000
  119  4 1 6  0  157       0.00100000       0.50000000       0.10000000       0.45000000       0.10500000       4.00000000
  120  4 1 7  0  158       0.00100000       0.50000000       0.10000000       0.45000000       0.10500000       4.00000000
  121  4 1 8  0  159       0.00100000       0.50000000       0.10000000       0.45000000       0.10500000       4.00000000
  122  4 1 9  0  160       0.00100000       0.50000000       0.10000000       0.45000000       0.10500000       4.00000000
  123  4 1 10  0  161       0.00100000       0.50000000       0.10000000       0.45000000       0.10500000       4.00000000
  124  4 1 11  0  162       0.00100000       0.50000000       0.10000000       0.45000000       0.10500000       4.00000000
  125  4 1 12  0  163       0.00100000       0.50000000       0.10000000       0.45000000       0.10500000       4.00000000
  126  4 1 13  0  164       0.00100000       0.50000000       0.10000000       0.45000000       0.10500000       4.00000000
  127  4 1 14  0  165       0.00100000       0.50000000       0.10000000       0.45000000       0.10500000       4.00000000
  128  4 1 15  0  166       0.00100000       0.50000000       0.10000000       0.45000000       0.10500000       4.00000000
  129  4 1 16  0  167       0.00100000       0.50000000       0.10000000       0.45000000       0.10500000       4.00000000
  130  4 1 17  0  168       0.00100000       0.50000000       0.10000000       0.45000000       0.10500000       4.00000000
  131  4 1 18  0  169       0.00100000       0.50000000       0.10000000       0.45000000       0.10500000       4.00000000
  132  4 1 19  0  170       0.00100000       0.50000000       0.10000000       0.45000000       0.10500000       4.00000000
  133  4 1 20  0  171       0.00100000       0.50000000       0.10000000       0.45000000       0.10500000       4.00000000
  134  4 1 21  0  172       0.00100000       0.50000000       0.10000000       0.45000000       0.10500000       4.00000000
  135  4 1 22  0  173       0.00100000       0.50000000       0.10000000       0.45000000       0.10500000       4.00000000
  136  4 1 23  0  174       0.00100000       0.50000000       0.10000000       0.45000000       0.10500000       4.00000000
  137  4 1 24  0  175       0.00100000       0.50000000       0.10000000       0.45000000       0.10500000       4.00000000
  138  4 1 25  0  176       0.00100000       0.50000000       0.10000000       0.45000000       0.10500000       4.00000000
  139  4 1 26  0  177       0.00100000       0.50000000       0.10000000       0.45000000       0.10500000       4.00000000
  140  4 1 27  0  178       0.00100000       0.50000000       0.10000000       0.45000000       0.10500000       4.00000000
  141  4 1 28  0  179       0.00100000       0.50000000       0.10000000       0.45000000       0.10500000       4.00000000
  142  4 1 29  0  180       0.00100000       0.50000000       0.10000000       0.45000000       0.10500000       4.00000000
  143  4 1 30  0  181       0.00100000       0.50000000       0.10000000       0.45000000       0.10500000       4.00000000
  144  4 1 31  0  182       0.00100000       0.50000000       0.10000000       0.45000000       0.10500000       4.00000000
  145  4 1 32  0  183       0.00100000       0.50000000       0.10000000       0.45000000       0.10500000       4.00000000
  146  4 1 33  0  184       0.00100000       0.50000000       0.10000000       0.45000000       0.10500000       4.00000000
  147  4 1 34  0  185       0.00100000       0.50000000       0.10000000       0.45000000       0.10500000       4.00000000
  148  4 1 35  0  186       0.00100000       0.50000000       0.10000000       0.45000000       0.10500000       4.00000000
  149  4 1 36  0  187       0.00100000       0.50000000       0.10000000       0.45000000       0.10500000       4.00000000
  150  4 1 37  0  188       0.00100000       0.50000000       0.10000000       0.45000000       0.10500000       4.00000000
  151  4 1 38  0  189       0.00100000       0.50000000       0.10000000       0.45000000       0.10500000       4.00000000
  152  4 1 39  0  190       0.00100000       0.50000000       0.10000000       0.45000000       0.10500000       4.00000000
  153  5 1 2  0  191       0.00100000       0.50000000       0.10000000       0.45000000       0.10500000       4.00000000
  154  5 1 3  0  192       0.00100000       0.50000000       0.10000000       0.45000000       0.10500000       4.00000000
  155  5 1 4  0  193       0.00100000       0.50000000       0.10000000       0.45000000       0.10500000       4.00000000
  156  5 1 5  0  194       0.00100000       0.50000000       0.10000000       0.45000000       0.10500000       4.00000000
  157  5 1 6  0  195       0.00100000       0.50000000       0.10000000       0.45000000       0.10500000       4.00000000
  158  5 1 7  0  196       0.00100000       0.50000000       0.10000000       0.45000000       0.10500000       4.00000000
  159  5 1 8  0  197       0.00100000       0.50000000       0.10000000       0.45000000       0.10500000       4.00000000
  160  5 1 9  0  198       0.00100000       0.50000000       0.10000000       0.45000000       0.10500000       4.00000000
  161  5 1 10  0  199       0.00100000       0.50000000       0.10000000       0.45000000       0.10500000       4.00000000
  162  5 1 11  0  200       0.00100000       0.50000000       0.10000000       0.45000000       0.10500000       4.00000000
  163  5 1 12  0  201       0.00100000       0.50000000       0.10000000       0.45000000       0.10500000       4.00000000
  164  5 1 13  0  202       0.00100000       0.50000000       0.10000000       0.45000000       0.10500000       4.00000000
  165  5 1 14  0  203       0.00100000       0.50000000       0.10000000       0.45000000       0.10500000       4.00000000
  166  5 1 15  0  204       0.00100000       0.50000000       0.10000000       0.45000000       0.10500000       4.00000000
  167  5 1 16  0  205       0.00100000       0.50000000       0.10000000       0.45000000       0.10500000       4.00000000
  168  5 1 17  0  206       0.00100000       0.50000000       0.10000000       0.45000000       0.10500000       4.00000000
  169  5 1 18  0  207       0.00100000       0.50000000       0.10000000       0.45000000       0.10500000       4.00000000
  170  5 1 19  0  208       0.00100000       0.50000000       0.10000000       0.45000000       0.10500000       4.00000000
  171  5 1 20  0  209       0.00100000       0.50000000       0.10000000       0.45000000       0.10500000       4.00000000
  172  5 1 21  0  210       0.00100000       0.50000000       0.10000000       0.45000000       0.10500000       4.00000000
  173  5 1 22  0  211       0.00100000       0.50000000       0.10000000       0.45000000       0.10500000       4.00000000
  174  5 1 23  0  212       0.00100000       0.50000000       0.10000000       0.45000000       0.10500000       4.00000000
  175  5 1 24  0  213       0.00100000       0.50000000       0.10000000       0.45000000       0.10500000       4.00000000
  176  5 1 25  0  214       0.00100000       0.50000000       0.10000000       0.45000000       0.10500000       4.00000000
  177  5 1 26  0  215       0.00100000       0.50000000       0.10000000       0.45000000       0.10500000       4.00000000
  178  5 1 27  0  216       0.00100000       0.50000000       0.10000000       0.45000000       0.10500000       4.00000000
  179  5 1 28  0  217       0.00100000       0.50000000       0.10000000       0.45000000       0.10500000       4.00000000
  180  5 1 29  0  218       0.00100000       0.50000000       0.10000000       0.45000000       0.10500000       4.00000000
  181  5 1 30  0  219       0.00100000       0.50000000       0.10000000       0.45000000       0.10500000       4.00000000
  182  5 1 31  0  220       0.00100000       0.50000000       0.10000000       0.45000000       0.10500000       4.00000000
  183  5 1 32  0  221       0.00100000       0.50000000       0.10000000       0.45000000       0.10500000       4.00000000
  184  5 1 33  0  222       0.00100000       0.50000000       0.10000000       0.45000000       0.10500000       4.00000000
  185  5 1 34  0  223       0.00100000       0.50000000       0.10000000       0.45000000       0.10500000       4.00000000
  186  5 1 35  0  224       0.00100000       0.50000000       0.10000000       0.45000000       0.10500000       4.00000000
  187  5 1 36  0  225       0.00100000       0.50000000       0.10000000       0.45000000       0.10500000       4.00000000
  188  5 1 37  0  226       0.00100000       0.50000000       0.10000000       0.45000000       0.10500000       4.00000000
  189  5 1 38  0  227       0.00100000       0.50000000       0.10000000       0.45000000       0.10500000       4.00000000
  190  5 1 39  0  228       0.00100000       0.50000000       0.10000000       0.45000000       0.10500000       4.00000000
  191  6 1 2  0  229       0.00100000       0.50000000       0.10000000       0.45000000       0.10500000       4.00000000
  192  6 1 3  0  230       0.00100000       0.50000000       0.10000000       0.45000000       0.10500000       4.00000000
  193  6 1 4  0  231       0.00100000       0.50000000       0.10000000       0.45000000       0.10500000       4.00000000
  194  6 1 5  0  232       0.00100000       0.50000000       0.10000000       0.45000000       0.10500000       4.00000000
  195  6 1 6  0  233       0.00100000       0.50000000       0.10000000       0.45000000       0.10500000       4.00000000
  196  6 1 7  0  234       0.00100000       0.50000000       0.10000000       0.45000000       0.10500000       4.00000000
  197  6 1 8  0  235       0.00100000       0.50000000       0.10000000       0.45000000       0.10500000       4.00000000
  198  6 1 9  0  236       0.00100000       0.50000000       0.10000000       0.45000000       0.10500000       4.00000000
  199  6 1 10  0  237       0.00100000       0.50000000       0.10000000       0.45000000       0.10500000       4.00000000
  200  6 1 11  0  238       0.00100000       0.50000000       0.10000000       0.45000000       0.10500000       4.00000000
  201  6 1 12  0  239       0.00100000       0.50000000       0.10000000       0.45000000       0.10500000       4.00000000
  202  6 1 13  0  240       0.00100000       0.50000000       0.10000000       0.45000000       0.10500000       4.00000000
  203  6 1 14  0  241       0.00100000       0.50000000       0.10000000       0.45000000       0.10500000       4.00000000
  204  6 1 15  0  242       0.00100000       0.50000000       0.10000000       0.45000000       0.10500000       4.00000000
  205  6 1 16  0  243       0.00100000       0.50000000       0.10000000       0.45000000       0.10500000       4.00000000
  206  6 1 17  0  244       0.00100000       0.50000000       0.10000000       0.45000000       0.10500000       4.00000000
  207  6 1 18  0  245       0.00100000       0.50000000       0.10000000       0.45000000       0.10500000       4.00000000
  208  6 1 19  0  246       0.00100000       0.50000000       0.10000000       0.45000000       0.10500000       4.00000000
  209  6 1 20  0  247       0.00100000       0.50000000       0.10000000       0.45000000       0.10500000       4.00000000
  210  6 1 21  0  248       0.00100000       0.50000000       0.10000000       0.45000000       0.10500000       4.00000000
  211  6 1 22  0  249       0.00100000       0.50000000       0.10000000       0.45000000       0.10500000       4.00000000
  212  6 1 23  0  250       0.00100000       0.50000000       0.10000000       0.45000000       0.10500000       4.00000000
  213  6 1 24  0  251       0.00100000       0.50000000       0.10000000       0.45000000       0.10500000       4.00000000
  214  6 1 25  0  252       0.00100000       0.50000000       0.10000000       0.45000000       0.10500000       4.00000000
  215  6 1 26  0  253       0.00100000       0.50000000       0.10000000       0.45000000       0.10500000       4.00000000
  216  6 1 27  0  254       0.00100000       0.50000000       0.10000000       0.45000000       0.10500000       4.00000000
  217  6 1 28  0  255       0.00100000       0.50000000       0.10000000       0.45000000       0.10500000       4.00000000
  218  6 1 29  0  256       0.00100000       0.50000000       0.10000000       0.45000000       0.10500000       4.00000000
  219  6 1 30  0  257       0.00100000       0.50000000       0.10000000       0.45000000       0.10500000       4.00000000
  220  6 1 31  0  258       0.00100000       0.50000000       0.10000000       0.45000000       0.10500000       4.00000000
  221  6 1 32  0  259       0.00100000       0.50000000       0.10000000       0.45000000       0.10500000       4.00000000
  222  6 1 33  0  260       0.00100000       0.50000000       0.10000000       0.45000000       0.10500000       4.00000000
  223  6 1 34  0  261       0.00100000       0.50000000       0.10000000       0.45000000       0.10500000       4.00000000
  224  6 1 35  0  262       0.00100000       0.50000000       0.10000000       0.45000000       0.10500000       4.00000000
  225  6 1 36  0  263       0.00100000       0.50000000       0.10000000       0.45000000       0.10500000       4.00000000
  226  6 1 37  0  264       0.00100000       0.50000000       0.10000000       0.45000000       0.10500000       4.00000000
  227  6 1 38  0  265       0.00100000       0.50000000       0.10000000       0.45000000       0.10500000       4.00000000
  228  6 1 39  0  266       0.00100000       0.50000000       0.10000000       0.45000000       0.10500000       4.00000000
  229  7 1 2  0  267       0.00100000       0.50000000       0.10000000       0.45000000       0.10500000       4.00000000
  230  7 1 3  0  268       0.00100000       0.50000000       0.10000000       0.45000000       0.10500000       4.00000000
  231  7 1 4  0  269       0.00100000       0.50000000       0.10000000       0.45000000       0.10500000       4.00000000
  232  7 1 5  0  270       0.00100000       0.50000000       0.10000000       0.45000000       0.10500000       4.00000000
  233  7 1 6  0  271       0.00100000       0.50000000       0.10000000       0.45000000       0.10500000       4.00000000
  234  7 1 7  0  272       0.00100000       0.50000000       0.10000000       0.45000000       0.10500000       4.00000000
  235  7 1 8  0  273       0.00100000       0.50000000       0.10000000       0.45000000       0.10500000       4.00000000
  236  7 1 9  0  274       0.00100000       0.50000000       0.10000000       0.45000000       0.10500000       4.00000000
  237  7 1 10  0  275       0.00100000       0.50000000       0.10000000       0.45000000       0.10500000       4.00000000
  238  7 1 11  0  276       0.00100000       0.50000000       0.10000000       0.45000000       0.10500000       4.00000000
  239  7 1 12  0  277       0.00100000       0.50000000       0.10000000       0.45000000       0.10500000       4.00000000
  240  7 1 13  0  278       0.00100000       0.50000000       0.10000000       0.45000000       0.10500000       4.00000000
  241  7 1 14  0  279       0.00100000       0.50000000       0.10000000       0.45000000       0.10500000       4.00000000