# File generated by Flopy version 3.3.5 on 03/04/2022 at 11:19:06.
BEGIN options
  auxiliary  CONCENTRATION
END options

BEGIN dimensions
  MAXBOUND  14
END dimensions

BEGIN period  1
  14 1 1       1.62500000       0.00000000
  14 1 40       1.62500000       0.00000000
  15 1 1       1.62500000       0.00000000
  15 1 40       1.62500000       0.00000000
  16 1 1       1.62500000       0.00000000
  16 1 40       1.62500000       0.00000000
  17 1 1       1.62500000       0.00000000
  17 1 40       1.62500000       0.00000000
  18 1 1       1.62500000       0.00000000
  18 1 40       1.62500000       0.00000000
  19 1 1       1.62500000       0.00000000
  19 1 40       1.62500000       0.00000000
  20 1 1       1.62500000       0.00000000
  20 1 40       1.62500000       0.00000000
END period  1

