# File generated by Flopy version 3.3.5 on 03/04/2022 at 11:14:37.
BEGIN options
  READASARRAYS
END options

BEGIN period  1
  recharge
    CONSTANT       0.00456600
END period  1

