# File generated by Flopy version 3.3.5 on 03/04/2022 at 11:14:37.
BEGIN options
  HEAD  FILEOUT  ex-gwf-maw-p03.hds
END options

BEGIN period  1
  SAVE  HEAD  LAST
  PRINT  BUDGET  LAST
END period  1

