# File generated by Flopy version 3.3.5 on 03/04/2022 at 11:14:37.
BEGIN options
  LENGTH_UNITS  feet
END options

BEGIN dimensions
  NLAY  21
  NROW  1
  NCOL  200
END dimensions

BEGIN griddata
  delr
    CONSTANT      50.00000000
  delc
    CONSTANT       1.00000000
  top
    CONSTANT      10.00000000
  botm  LAYERED
    CONSTANT      -5.00000000
    CONSTANT     -15.00000000
    CONSTANT     -25.00000000
    CONSTANT     -35.00000000
    CONSTANT     -45.00000000
    CONSTANT     -55.00000000
    CONSTANT     -65.00000000
    CONSTANT     -75.00000000
    CONSTANT     -85.00000000
    CONSTANT     -95.00000000
    CONSTANT    -105.00000000
    CONSTANT    -115.00000000
    CONSTANT    -125.00000000
    CONSTANT    -135.00000000
    CONSTANT    -145.00000000
    CONSTANT    -155.00000000
    CONSTANT    -165.00000000
    CONSTANT    -175.00000000
    CONSTANT    -185.00000000
    CONSTANT    -195.00000000
    CONSTANT    -205.00000000
END griddata

