# File generated by Flopy version 3.3.5 on 03/04/2022 at 11:14:43.
BEGIN options
  READASARRAYS
END options

BEGIN period  1
  recharge
    INTERNAL  FACTOR  1.0
    3.49000000E-06  3.55000000E-06  3.60000000E-06  3.66000000E-06  3.72000000E-06  3.78000000E-06  3.83000000E-06  3.89000000E-06  3.95000000E-06  4.01000000E-06  4.06000000E-06  4.12000000E-06  4.18000000E-06  4.24000000E-06  4.30000000E-06  4.35000000E-06  4.41000000E-06  4.47000000E-06  4.53000000E-06  4.59000000E-06  4.65000000E-06  4.71000000E-06  4.76000000E-06  4.82000000E-06  4.88000000E-06  4.94000000E-06  5.00000000E-06  5.06000000E-06  5.12000000E-06  5.18000000E-06  5.24000000E-06  5.29000000E-06  5.35000000E-06  5.41000000E-06  5.47000000E-06  5.53000000E-06  5.59000000E-06  5.65000000E-06  5.70000000E-06  5.76000000E-06  5.82000000E-06  5.88000000E-06  5.94000000E-06  5.99000000E-06  6.05000000E-06  6.11000000E-06  6.17000000E-06  6.22000000E-06  6.28000000E-06  6.34000000E-06  6.40000000E-06  6.45000000E-06  6.51000000E-06  6.56000000E-06  6.62000000E-06  6.68000000E-06  6.73000000E-06  6.79000000E-06  6.84000000E-06  6.90000000E-06  6.95000000E-06  7.01000000E-06  7.06000000E-06  7.12000000E-06  7.17000000E-06  7.22000000E-06  7.28000000E-06  7.33000000E-06  7.38000000E-06  7.43000000E-06  7.49000000E-06  7.54000000E-06  7.59000000E-06  7.64000000E-06  7.69000000E-06  7.74000000E-06  7.79000000E-06  7.84000000E-06  7.89000000E-06  7.94000000E-06
    3.59000000E-06  3.65000000E-06  3.70000000E-06  3.75000000E-06  3.80000000E-06  3.85000000E-06  3.89000000E-06  3.94000000E-06  3.99000000E-06  4.04000000E-06  4.08000000E-06  4.13000000E-06  4.18000000E-06  4.23000000E-06  4.29000000E-06  4.34000000E-06  4.40000000E-06  4.45000000E-06  4.51000000E-06  4.57000000E-06  4.64000000E-06  4.70000000E-06  4.76000000E-06  4.83000000E-06  4.89000000E-06  4.96000000E-06  5.02000000E-06  5.08000000E-06  5.14000000E-06  5.21000000E-06  5.26000000E-06  5.32000000E-06  5.38000000E-06  5.43000000E-06  5.49000000E-06  5.54000000E-06  5.59000000E-06  5.64000000E-06  5.68000000E-06  5.73000000E-06  5.78000000E-06  5.83000000E-06  5.88000000E-06  5.93000000E-06  5.98000000E-06  6.03000000E-06  6.08000000E-06  6.13000000E-06  6.19000000E-06  6.25000000E-06  6.31000000E-06  6.37000000E-06  6.43000000E-06  6.49000000E-06  6.55000000E-06  6.61000000E-06  6.67000000E-06  6.73000000E-06  6.79000000E-06  6.85000000E-06  6.91000000E-06  6.96000000E-06  7.02000000E-06  7.07000000E-06  7.12000000E-06  7.17000000E-06  7.22000000E-06  7.26000000E-06  7.31000000E-06  7.35000000E-06  7.39000000E-06  7.43000000E-06  7.47000000E-06  7.52000000E-06  7.56000000E-06  7.60000000E-06  7.64000000E-06  7.69000000E-06  7.73000000E-06  7.78000000E-06
    3.70000000E-06  3.75000000E-06  3.79000000E-06  3.84000000E-06  3.88000000E-06  3.92000000E-06  3.96000000E-06  3.99000000E-06  4.03000000E-06  4.07000000E-06  4.11000000E-06  4.15000000E-06  4.19000000E-06  4.23000000E-06  4.28000000E-06  4.33000000E-06  4.38000000E-06  4.44000000E-06  4.50000000E-06  4.56000000E-06  4.63000000E-06  4.69000000E-06  4.76000000E-06  4.83000000E-06  4.90000000E-06  4.97000000E-06  5.04000000E-06  5.11000000E-06  5.17000000E-06  5.23000000E-06  5.29000000E-06  5.35000000E-06  5.40000000E-06  5.45000000E-06  5.50000000E-06  5.54000000E-06  5.58000000E-06  5.62000000E-06  5.66000000E-06  5.70000000E-06  5.74000000E-06  5.78000000E-06  5.81000000E-06  5.86000000E-06  5.90000000E-06  5.94000000E-06  5.99000000E-06  6.04000000E-06  6.10000000E-06  6.15000000E-06  6.21000000E-06  6.27000000E-06  6.34000000E-06  6.41000000E-06  6.47000000E-06  6.54000000E-06  6.61000000E-06  6.67000000E-06  6.74000000E-06  6.80000000E-06  6.86000000E-06  6.91000000E-06  6.97000000E-06  7.02000000E-06  7.07000000E-06  7.11000000E-06  7.15000000E-06  7.19000000E-06  7.22000000E-06  7.26000000E-06  7.29000000E-06  7.32000000E-06  7.35000000E-06  7.38000000E-06  7.42000000E-06  7.45000000E-06  7.49000000E-06  7.53000000E-06  7.57000000E-06  7.62000000E-06
    3.81000000E-06  3.85000000E-06  3.89000000E-06  3.93000000E-06  3.97000000E-06  4.00000000E-06  4.02000000E-06  4.05000000E-06  4.08000000E-06  4.10000000E-06  4.13000000E-06  4.16000000E-06  4.20000000E-06  4.23000000E-06  4.27000000E-06  4.32000000E-06  4.37000000E-06  4.43000000E-06  4.49000000E-06  4.55000000E-06  4.62000000E-06  4.69000000E-06  4.76000000E-06  4.84000000E-06  4.91000000E-06  4.99000000E-06  5.06000000E-06  5.13000000E-06  5.20000000E-06  5.26000000E-06  5.32000000E-06  5.38000000E-06  5.43000000E-06  5.47000000E-06  5.51000000E-06  5.55000000E-06  5.58000000E-06  5.61000000E-06  5.64000000E-06  5.67000000E-06  5.69000000E-06  5.72000000E-06  5.75000000E-06  5.78000000E-06  5.82000000E-06  5.86000000E-06  5.90000000E-06  5.95000000E-06  6.00000000E-06  6.06000000E-06  6.12000000E-06  6.18000000E-06  6.25000000E-06  6.32000000E-06  6.39000000E-06  6.46000000E-06  6.54000000E-06  6.61000000E-06  6.68000000E-06  6.74000000E-06  6.80000000E-06  6.86000000E-06  6.91000000E-06  6.96000000E-06  7.00000000E-06  7.04000000E-06  7.08000000E-06  7.11000000E-06  7.13000000E-06  7.16000000E-06  7.18000000E-06  7.20000000E-06  7.22000000E-06  7.24000000E-06  7.27000000E-06  7.29000000E-06  7.32000000E-06  7.36000000E-06  7.40000000E-06  7.44000000E-06
    3.92000000E-06  3.96000000E-06  4.00000000E-06  4.03000000E-06  4.05000000E-06  4.08000000E-06  4.09000000E-06  4.11000000E-06  4.13000000E-06  4.14000000E-06  4.16000000E-06  4.18000000E-06  4.20000000E-06  4.23000000E-06  4.27000000E-06  4.31000000E-06  4.36000000E-06  4.41000000E-06  4.47000000E-06  4.54000000E-06  4.61000000E-06  4.68000000E-06  4.76000000E-06  4.84000000E-06  4.92000000E-06  5.00000000E-06  5.08000000E-06  5.15000000E-06  5.22000000E-06  5.29000000E-06  5.35000000E-06  5.40000000E-06  5.45000000E-06  5.49000000E-06  5.52000000E-06  5.55000000E-06  5.58000000E-06  5.60000000E-06  5.61000000E-06  5.63000000E-06  5.65000000E-06  5.66000000E-06  5.68000000E-06  5.71000000E-06  5.73000000E-06  5.77000000E-06  5.80000000E-06  5.85000000E-06  5.90000000E-06  5.95000000E-06  6.02000000E-06  6.08000000E-06  6.16000000E-06  6.23000000E-06  6.31000000E-06  6.38000000E-06  6.46000000E-06  6.54000000E-06  6.61000000E-06  6.68000000E-06  6.74000000E-06  6.80000000E-06  6.85000000E-06  6.90000000E-06  6.94000000E-06  6.97000000E-06  7.00000000E-06  7.02000000E-06  7.04000000E-06  7.05000000E-06  7.06000000E-06  7.07000000E-06  7.08000000E-06  7.10000000E-06  7.11000000E-06  7.13000000E-06  7.16000000E-06  7.18000000E-06  7.22000000E-06  7.26000000E-06
    4.03000000E-06  4.07000000E-06  4.10000000E-06  4.13000000E-06  4.14000000E-06  4.16000000E-06  4.17000000E-06  4.17000000E-06  4.18000000E-06  4.18000000E-06  4.19000000E-06  4.20000000E-06  4.22000000E-06  4.24000000E-06  4.27000000E-06  4.30000000E-06  4.35000000E-06  4.40000000E-06  4.46000000E-06  4.53000000E-06  4.60000000E-06  4.68000000E-06  4.76000000E-06  4.85000000E-06  4.93000000E-06  5.02000000E-06  5.10000000E-06  5.18000000E-06  5.25000000E-06  5.31000000E-06  5.37000000E-06  5.43000000E-06  5.47000000E-06  5.50000000E-06  5.53000000E-06  5.55000000E-06  5.57000000E-06  5.58000000E-06  5.59000000E-06  5.59000000E-06  5.60000000E-06  5.61000000E-06  5.61000000E-06  5.63000000E-06  5.65000000E-06  5.67000000E-06  5.71000000E-06  5.75000000E-06  5.79000000E-06  5.85000000E-06  5.91000000E-06  5.98000000E-06  6.06000000E-06  6.14000000E-06  6.22000000E-06  6.30000000E-06  6.38000000E-06  6.46000000E-06  6.54000000E-06  6.61000000E-06  6.68000000E-06  6.74000000E-06  6.79000000E-06  6.83000000E-06  6.87000000E-06  6.89000000E-06  6.91000000E-06  6.93000000E-06  6.94000000E-06  6.94000000E-06  6.94000000E-06  6.94000000E-06  6.94000000E-06  6.95000000E-06  6.95000000E-06  6.96000000E-06  6.98000000E-06  7.00000000E-06  7.03000000E-06  7.07000000E-06
    4.15000000E-06  4.19000000E-06  4.21000000E-06  4.23000000E-06  4.24000000E-06  4.24000000E-06  4.24000000E-06  4.24000000E-06  4.23000000E-06  4.22000000E-06  4.22000000E-06  4.22000000E-06  4.23000000E-06  4.24000000E-06  4.27000000E-06  4.30000000E-06  4.34000000E-06  4.39000000E-06  4.45000000E-06  4.52000000E-06  4.60000000E-06  4.68000000E-06  4.76000000E-06  4.85000000E-06  4.94000000E-06  5.03000000E-06  5.12000000E-06  5.20000000E-06  5.27000000E-06  5.34000000E-06  5.40000000E-06  5.45000000E-06  5.49000000E-06  5.52000000E-06  5.54000000E-06  5.55000000E-06  5.56000000E-06  5.56000000E-06  5.56000000E-06  5.55000000E-06  5.55000000E-06  5.54000000E-06  5.54000000E-06  5.55000000E-06  5.56000000E-06  5.58000000E-06  5.61000000E-06  5.64000000E-06  5.69000000E-06  5.74000000E-06  5.81000000E-06  5.88000000E-06  5.96000000E-06  6.04000000E-06  6.13000000E-06  6.21000000E-06  6.30000000E-06  6.39000000E-06  6.47000000E-06  6.54000000E-06  6.61000000E-06  6.67000000E-06  6.72000000E-06  6.76000000E-06  6.79000000E-06  6.81000000E-06  6.83000000E-06  6.83000000E-06  6.83000000E-06  6.82000000E-06  6.81000000E-06  6.80000000E-06  6.79000000E-06  6.79000000E-06  6.79000000E-06  6.79000000E-06  6.80000000E-06  6.82000000E-06  6.84000000E-06  6.88000000E-06
    4.27000000E-06  4.30000000E-06  4.32000000E-06  4.33000000E-06  4.33000000E-06  4.33000000E-06  4.32000000E-06  4.30000000E-06  4.28000000E-06  4.27000000E-06  4.26000000E-06  4.25000000E-06  4.25000000E-06  4.25000000E-06  4.27000000E-06  4.30000000E-06  4.33000000E-06  4.38000000E-06  4.44000000E-06  4.51000000E-06  4.59000000E-06  4.68000000E-06  4.77000000E-06  4.86000000E-06  4.95000000E-06  5.05000000E-06  5.14000000E-06  5.22000000E-06  5.30000000E-06  5.37000000E-06  5.42000000E-06  5.47000000E-06  5.51000000E-06  5.53000000E-06  5.55000000E-06  5.55000000E-06  5.55000000E-06  5.54000000E-06  5.53000000E-06  5.51000000E-06  5.50000000E-06  5.48000000E-06  5.47000000E-06  5.47000000E-06  5.47000000E-06  5.48000000E-06  5.50000000E-06  5.54000000E-06  5.58000000E-06  5.64000000E-06  5.70000000E-06  5.77000000E-06  5.85000000E-06  5.94000000E-06  6.03000000E-06  6.12000000E-06  6.22000000E-06  6.30000000E-06  6.39000000E-06  6.47000000E-06  6.54000000E-06  6.60000000E-06  6.64000000E-06  6.68000000E-06  6.71000000E-06  6.73000000E-06  6.73000000E-06  6.73000000E-06  6.72000000E-06  6.70000000E-06  6.68000000E-06  6.66000000E-06  6.64000000E-06  6.63000000E-06  6.61000000E-06  6.61000000E-06  6.61000000E-06  6.62000000E-06  6.65000000E-06  6.68000000E-06
    4.40000000E-06  4.42000000E-06  4.44000000E-06  4.44000000E-06  4.43000000E-06  4.42000000E-06  4.40000000E-06  4.37000000E-06  4.34000000E-06  4.31000000E-06  4.29000000E-06  4.27000000E-06  4.26000000E-06  4.26000000E-06  4.27000000E-06  4.29000000E-06  4.33000000E-06  4.38000000E-06  4.44000000E-06  4.51000000E-06  4.59000000E-06  4.67000000E-06  4.77000000E-06  4.87000000E-06  4.97000000E-06  5.06000000E-06  5.16000000E-06  5.24000000E-06  5.32000000E-06  5.39000000E-06  5.45000000E-06  5.49000000E-06  5.53000000E-06  5.55000000E-06  5.55000000E-06  5.55000000E-06  5.54000000E-06  5.52000000E-06  5.50000000E-06  5.47000000E-06  5.44000000E-06  5.42000000E-06  5.40000000E-06  5.38000000E-06  5.38000000E-06  5.38000000E-06  5.40000000E-06  5.43000000E-06  5.47000000E-06  5.53000000E-06  5.59000000E-06  5.67000000E-06  5.75000000E-06  5.84000000E-06  5.93000000E-06  6.03000000E-06  6.13000000E-06  6.22000000E-06  6.31000000E-06  6.39000000E-06  6.46000000E-06  6.52000000E-06  6.57000000E-06  6.60000000E-06  6.62000000E-06  6.63000000E-06  6.63000000E-06  6.62000000E-06  6.60000000E-06  6.58000000E-06  6.55000000E-06  6.52000000E-06  6.49000000E-06  6.46000000E-06  6.44000000E-06  6.42000000E-06  6.42000000E-06  6.43000000E-06  6.45000000E-06  6.48000000E-06
    4.52000000E-06  4.54000000E-06  4.55000000E-06  4.55000000E-06  4.53000000E-06  4.51000000E-06  4.48000000E-06  4.44000000E-06  4.40000000E-06  4.36000000E-06  4.33000000E-06  4.30000000E-06  4.28000000E-06  4.27000000E-06  4.28000000E-06  4.29000000E-06  4.33000000E-06  4.37000000E-06  4.43000000E-06  4.50000000E-06  4.58000000E-06  4.67000000E-06  4.77000000E-06  4.87000000E-06  4.98000000E-06  5.08000000E-06  5.17000000E-06  5.26000000E-06  5.34000000E-06  5.41000000E-06  5.47000000E-06  5.51000000E-06  5.54000000E-06  5.56000000E-06  5.56000000E-06  5.55000000E-06  5.53000000E-06  5.50000000E-06  5.47000000E-06  5.43000000E-06  5.39000000E-06  5.35000000E-06  5.32000000E-06  5.30000000E-06  5.29000000E-06  5.29000000E-06  5.30000000E-06  5.32000000E-06  5.36000000E-06  5.41000000E-06  5.48000000E-06  5.55000000E-06  5.64000000E-06  5.74000000E-06  5.83000000E-06  5.93000000E-06  6.04000000E-06  6.13000000E-06  6.22000000E-06  6.31000000E-06  6.38000000E-06  6.44000000E-06  6.48000000E-06  6.52000000E-06  6.53000000E-06  6.54000000E-06  6.53000000E-06  6.51000000E-06  6.48000000E-06  6.45000000E-06  6.41000000E-06  6.36000000E-06  6.32000000E-06  6.29000000E-06  6.26000000E-06  6.24000000E-06  6.22000000E-06  6.23000000E-06  6.24000000E-06  6.27000000E-06
    4.65000000E-06  4.67000000E-06  4.67000000E-06  4.66000000E-06  4.63000000E-06  4.60000000E-06  4.56000000E-06  4.51000000E-06  4.46000000E-06  4.41000000E-06  4.37000000E-06  4.33000000E-06  4.30000000E-06  4.29000000E-06  4.28000000E-06  4.30000000E-06  4.32000000E-06  4.37000000E-06  4.43000000E-06  4.50000000E-06  4.58000000E-06  4.67000000E-06  4.78000000E-06  4.88000000E-06  4.99000000E-06  5.09000000E-06  5.19000000E-06  5.28000000E-06  5.37000000E-06  5.44000000E-06  5.49000000E-06  5.53000000E-06  5.56000000E-06  5.57000000E-06  5.56000000E-06  5.55000000E-06  5.52000000E-06  5.48000000E-06  5.43000000E-06  5.38000000E-06  5.33000000E-06  5.29000000E-06  5.25000000E-06  5.22000000E-06  5.19000000E-06  5.19000000E-06  5.19000000E-06  5.21000000E-06  5.25000000E-06  5.30000000E-06  5.36000000E-06  5.44000000E-06  5.53000000E-06  5.63000000E-06  5.73000000E-06  5.84000000E-06  5.94000000E-06  6.04000000E-06  6.14000000E-06  6.22000000E-06  6.29000000E-06  6.35000000E-06  6.40000000E-06  6.43000000E-06  6.44000000E-06  6.44000000E-06  6.42000000E-06  6.40000000E-06  6.36000000E-06  6.31000000E-06  6.26000000E-06  6.21000000E-06  6.16000000E-06  6.11000000E-06  6.07000000E-06  6.04000000E-06  6.03000000E-06  6.02000000E-06  6.03000000E-06  6.06000000E-06
    4.78000000E-06  4.79000000E-06  4.79000000E-06  4.77000000E-06  4.74000000E-06  4.69000000E-06  4.64000000E-06  4.58000000E-06  4.52000000E-06  4.46000000E-06  4.41000000E-06  4.36000000E-06  4.32000000E-06  4.30000000E-06  4.29000000E-06  4.30000000E-06  4.32000000E-06  4.36000000E-06  4.42000000E-06  4.49000000E-06  4.58000000E-06  4.68000000E-06  4.78000000E-06  4.89000000E-06  5.00000000E-06  5.11000000E-06  5.21000000E-06  5.31000000E-06  5.39000000E-06  5.46000000E-06  5.51000000E-06  5.55000000E-06  5.57000000E-06  5.58000000E-06  5.57000000E-06  5.54000000E-06  5.50000000E-06  5.45000000E-06  5.40000000E-06  5.34000000E-06  5.28000000E-06  5.22000000E-06  5.17000000E-06  5.13000000E-06  5.10000000E-06  5.08000000E-06  5.08000000E-06  5.10000000E-06  5.13000000E-06  5.18000000E-06  5.25000000E-06  5.33000000E-06  5.42000000E-06  5.52000000E-06  5.63000000E-06  5.74000000E-06  5.84000000E-06  5.95000000E-06  6.04000000E-06  6.13000000E-06  6.21000000E-06  6.27000000E-06  6.31000000E-06  6.33000000E-06  6.34000000E-06  6.34000000E-06  6.31000000E-06  6.28000000E-06  6.23000000E-06  6.18000000E-06  6.11000000E-06  6.05000000E-06  5.99000000E-06  5.93000000E-06  5.89000000E-06  5.85000000E-06  5.82000000E-06  5.81000000E-06  5.82000000E-06  5.84000000E-06
    4.91000000E-06  4.92000000E-06  4.91000000E-06  4.88000000E-06  4.84000000E-06  4.79000000E-06  4.73000000E-06  4.66000000E-06  4.59000000E-06  4.52000000E-06  4.45000000E-06  4.39000000E-06  4.35000000E-06  4.32000000E-06  4.30000000E-06  4.30000000E-06  4.32000000E-06  4.36000000E-06  4.42000000E-06  4.49000000E-06  4.58000000E-06  4.68000000E-06  4.78000000E-06  4.90000000E-06  5.01000000E-06  5.12000000E-06  5.23000000E-06  5.33000000E-06  5.41000000E-06  5.48000000E-06  5.53000000E-06  5.57000000E-06  5.59000000E-06  5.59000000E-06  5.57000000E-06  5.53000000E-06  5.49000000E-06  5.43000000E-06  5.36000000E-06  5.29000000E-06  5.22000000E-06  5.15000000E-06  5.09000000E-06  5.04000000E-06  5.00000000E-06  4.98000000E-06  4.98000000E-06  4.99000000E-06  5.02000000E-06  5.07000000E-06  5.13000000E-06  5.21000000E-06  5.31000000E-06  5.41000000E-06  5.52000000E-06  5.63000000E-06  5.74000000E-06  5.85000000E-06  5.95000000E-06  6.04000000E-06  6.11000000E-06  6.17000000E-06  6.22000000E-06  6.24000000E-06  6.24000000E-06  6.23000000E-06  6.20000000E-06  6.16000000E-06  6.10000000E-06  6.04000000E-06  5.96000000E-06  5.89000000E-06  5.82000000E-06  5.75000000E-06  5.70000000E-06  5.65000000E-06  5.62000000E-06  5.60000000E-06  5.60000000E-06  5.62000000E-06
    5.04000000E-06  5.04000000E-06  5.03000000E-06  4.99000000E-06  4.95000000E-06  4.88000000E-06  4.81000000E-06  4.73000000E-06  4.65000000E-06  4.57000000E-06  4.49000000E-06  4.43000000E-06  4.37000000E-06  4.33000000E-06  4.31000000E-06  4.31000000E-06  4.33000000E-06  4.36000000E-06  4.42000000E-06  4.49000000E-06  4.58000000E-06  4.68000000E-06  4.79000000E-06  4.90000000E-06  5.02000000E-06  5.14000000E-06  5.25000000E-06  5.34000000E-06  5.43000000E-06  5.50000000E-06  5.55000000E-06  5.59000000E-06  5.60000000E-06  5.59000000E-06  5.57000000E-06  5.53000000E-06  5.47000000E-06  5.40000000E-06  5.33000000E-06  5.24000000E-06  5.16000000E-06  5.09000000E-06  5.01000000E-06  4.96000000E-06  4.91000000E-06  4.88000000E-06  4.87000000E-06  4.88000000E-06  4.90000000E-06  4.95000000E-06  5.02000000E-06  5.10000000E-06  5.19000000E-06  5.30000000E-06  5.41000000E-06  5.53000000E-06  5.64000000E-06  5.75000000E-06  5.86000000E-06  5.95000000E-06  6.02000000E-06  6.08000000E-06  6.12000000E-06  6.14000000E-06  6.14000000E-06  6.12000000E-06  6.09000000E-06  6.03000000E-06  5.97000000E-06  5.89000000E-06  5.81000000E-06  5.73000000E-06  5.65000000E-06  5.57000000E-06  5.50000000E-06  5.45000000E-06  5.41000000E-06  5.39000000E-06  5.39000000E-06  5.40000000E-06
    5.17000000E-06  5.17000000E-06  5.15000000E-06  5.11000000E-06  5.05000000E-06  4.98000000E-06  4.90000000E-06  4.81000000E-06  4.72000000E-06  4.63000000E-06  4.54000000E-06  4.46000000E-06  4.40000000E-06  4.35000000E-06  4.33000000E-06  4.32000000E-06  4.33000000E-06  4.36000000E-06  4.42000000E-06  4.49000000E-06  4.58000000E-06  4.68000000E-06  4.79000000E-06  4.91000000E-06  5.03000000E-06  5.15000000E-06  5.26000000E-06  5.36000000E-06  5.45000000E-06  5.52000000E-06  5.57000000E-06  5.60000000E-06  5.61000000E-06  5.60000000E-06  5.57000000E-06  5.52000000E-06  5.45000000E-06  5.37000000E-06  5.29000000E-06  5.20000000E-06  5.10000000E-06  5.02000000E-06  4.94000000E-06  4.87000000E-06  4.81000000E-06  4.78000000E-06  4.76000000E-06  4.76000000E-06  4.79000000E-06  4.83000000E-06  4.90000000E-06  4.98000000E-06  5.08000000E-06  5.19000000E-06  5.30000000E-06  5.42000000E-06  5.54000000E-06  5.65000000E-06  5.76000000E-06  5.85000000E-06  5.93000000E-06  5.98000000E-06  6.02000000E-06  6.04000000E-06  6.03000000E-06  6.01000000E-06  5.97000000E-06  5.91000000E-06  5.83000000E-06  5.75000000E-06  5.66000000E-06  5.56000000E-06  5.47000000E-06  5.38000000E-06  5.31000000E-06  5.25000000E-06  5.20000000E-06  5.17000000E-06  5.17000000E-06  5.18000000E-06
    5.30000000E-06  5.29000000E-06  5.27000000E-06  5.22000000E-06  5.16000000E-06  5.08000000E-06  4.98000000E-06  4.88000000E-06  4.78000000E-06  4.68000000E-06  4.59000000E-06  4.50000000E-06  4.43000000E-06  4.37000000E-06  4.34000000E-06  4.33000000E-06  4.33000000E-06  4.37000000E-06  4.42000000E-06  4.49000000E-06  4.58000000E-06  4.69000000E-06  4.80000000E-06  4.92000000E-06  5.05000000E-06  5.17000000E-06  5.28000000E-06  5.38000000E-06  5.47000000E-06  5.54000000E-06  5.59000000E-06  5.62000000E-06  5.62000000E-06  5.60000000E-06  5.57000000E-06  5.51000000E-06  5.43000000E-06  5.35000000E-06  5.25000000E-06  5.15000000E-06  5.05000000E-06  4.95000000E-06  4.86000000E-06  4.78000000E-06  4.72000000E-06  4.67000000E-06  4.65000000E-06  4.65000000E-06  4.67000000E-06  4.72000000E-06  4.78000000E-06  4.86000000E-06  4.96000000E-06  5.07000000E-06  5.19000000E-06  5.31000000E-06  5.44000000E-06  5.55000000E-06  5.66000000E-06  5.75000000E-06  5.83000000E-06  5.89000000E-06  5.92000000E-06  5.94000000E-06  5.93000000E-06  5.90000000E-06  5.85000000E-06  5.78000000E-06  5.69000000E-06  5.60000000E-06  5.50000000E-06  5.39000000E-06  5.29000000E-06  5.20000000E-06  5.11000000E-06  5.04000000E-06  4.99000000E-06  4.96000000E-06  4.95000000E-06  4.96000000E-06
    5.43000000E-06  5.42000000E-06  5.39000000E-06  5.33000000E-06  5.26000000E-06  5.17000000E-06  5.07000000E-06  4.96000000E-06  4.85000000E-06  4.74000000E-06  4.63000000E-06  4.54000000E-06  4.46000000E-06  4.40000000E-06  4.35000000E-06  4.34000000E-06  4.34000000E-06  4.37000000E-06  4.42000000E-06  4.49000000E-06  4.58000000E-06  4.69000000E-06  4.81000000E-06  4.93000000E-06  5.06000000E-06  5.18000000E-06  5.30000000E-06  5.40000000E-06  5.49000000E-06  5.56000000E-06  5.60000000E-06  5.63000000E-06  5.63000000E-06  5.61000000E-06  5.56000000E-06  5.50000000E-06  5.41000000E-06  5.32000000E-06  5.21000000E-06  5.10000000E-06  4.99000000E-06  4.88000000E-06  4.78000000E-06  4.69000000E-06  4.62000000E-06  4.57000000E-06  4.54000000E-06  4.54000000E-06  4.56000000E-06  4.60000000E-06  4.66000000E-06  4.75000000E-06  4.85000000E-06  4.96000000E-06  5.08000000E-06  5.21000000E-06  5.33000000E-06  5.45000000E-06  5.56000000E-06  5.65000000E-06  5.73000000E-06  5.79000000E-06  5.82000000E-06  5.83000000E-06  5.82000000E-06  5.78000000E-06  5.72000000E-06  5.65000000E-06  5.55000000E-06  5.45000000E-06  5.34000000E-06  5.23000000E-06  5.11000000E-06  5.01000000E-06  4.92000000E-06  4.84000000E-06  4.78000000E-06  4.74000000E-06  4.72000000E-06  4.73000000E-06
    5.56000000E-06  5.55000000E-06  5.51000000E-06  5.45000000E-06  5.37000000E-06  5.27000000E-06  5.16000000E-06  5.04000000E-06  4.92000000E-06  4.79000000E-06  4.68000000E-06  4.58000000E-06  4.49000000E-06  4.42000000E-06  4.37000000E-06  4.35000000E-06  4.35000000E-06  4.37000000E-06  4.42000000E-06  4.50000000E-06  4.59000000E-06  4.69000000E-06  4.81000000E-06  4.94000000E-06  5.07000000E-06  5.19000000E-06  5.31000000E-06  5.42000000E-06  5.50000000E-06  5.57000000E-06  5.62000000E-06  5.64000000E-06  5.64000000E-06  5.61000000E-06  5.56000000E-06  5.49000000E-06  5.39000000E-06  5.29000000E-06  5.17000000E-06  5.05000000E-06  4.93000000E-06  4.81000000E-06  4.70000000E-06  4.60000000E-06  4.53000000E-06  4.47000000E-06  4.44000000E-06  4.43000000E-06  4.44000000E-06  4.48000000E-06  4.55000000E-06  4.63000000E-06  4.73000000E-06  4.85000000E-06  4.97000000E-06  5.10000000E-06  5.22000000E-06  5.35000000E-06  5.46000000E-06  5.55000000E-06  5.63000000E-06  5.68000000E-06  5.72000000E-06  5.72000000E-06  5.71000000E-06  5.66000000E-06  5.60000000E-06  5.51000000E-06  5.41000000E-06  5.30000000E-06  5.18000000E-06  5.06000000E-06  4.94000000E-06  4.82000000E-06  4.72000000E-06  4.63000000E-06  4.57000000E-06  4.52000000E-06  4.50000000E-06  4.51000000E-06
    5.69000000E-06  5.67000000E-06  5.63000000E-06  5.56000000E-06  5.47000000E-06  5.36000000E-06  5.24000000E-06  5.12000000E-06  4.98000000E-06  4.85000000E-06  4.73000000E-06  4.61000000E-06  4.52000000E-06  4.44000000E-06  4.39000000E-06  4.36000000E-06  4.36000000E-06  4.38000000E-06  4.43000000E-06  4.50000000E-06  4.59000000E-06  4.70000000E-06  4.82000000E-06  4.95000000E-06  5.08000000E-06  5.21000000E-06  5.33000000E-06  5.43000000E-06  5.52000000E-06  5.59000000E-06  5.63000000E-06  5.65000000E-06  5.65000000E-06  5.61000000E-06  5.55000000E-06  5.47000000E-06  5.37000000E-06  5.26000000E-06  5.13000000E-06  5.00000000E-06  4.87000000E-06  4.74000000E-06  4.62000000E-06  4.52000000E-06  4.43000000E-06  4.37000000E-06  4.33000000E-06  4.32000000E-06  4.33000000E-06  4.37000000E-06  4.43000000E-06  4.51000000E-06  4.62000000E-06  4.73000000E-06  4.86000000E-06  4.99000000E-06  5.12000000E-06  5.24000000E-06  5.35000000E-06  5.45000000E-06  5.53000000E-06  5.58000000E-06  5.61000000E-06  5.62000000E-06  5.59000000E-06  5.54000000E-06  5.47000000E-06  5.38000000E-06  5.27000000E-06  5.15000000E-06  5.02000000E-06  4.89000000E-06  4.76000000E-06  4.63000000E-06  4.52000000E-06  4.43000000E-06  4.36000000E-06  4.31000000E-06  4.28000000E-06  4.29000000E-06
    5.82000000E-06  5.80000000E-06  5.75000000E-06  5.67000000E-06  5.58000000E-06  5.46000000E-06  5.33000000E-06  5.19000000E-06  5.05000000E-06  4.91000000E-06  4.78000000E-06  4.65000000E-06  4.55000000E-06  4.46000000E-06  4.40000000E-06  4.37000000E-06  4.36000000E-06  4.38000000E-06  4.43000000E-06  4.50000000E-06  4.60000000E-06  4.71000000E-06  4.83000000E-06  4.96000000E-06  5.09000000E-06  5.22000000E-06  5.34000000E-06  5.45000000E-06  5.54000000E-06  5.60000000E-06  5.65000000E-06  5.66000000E-06  5.65000000E-06  5.61000000E-06  5.55000000E-06  5.46000000E-06  5.35000000E-06  5.23000000E-06  5.09000000E-06  4.95000000E-06  4.81000000E-06  4.67000000E-06  4.54000000E-06  4.43000000E-06  4.34000000E-06  4.27000000E-06  4.22000000E-06  4.21000000E-06  4.22000000E-06  4.25000000E-06  4.31000000E-06  4.40000000E-06  4.50000000E-06  4.62000000E-06  4.75000000E-06  4.88000000E-06  5.01000000E-06  5.14000000E-06  5.25000000E-06  5.35000000E-06  5.42000000E-06  5.48000000E-06  5.51000000E-06  5.51000000E-06  5.48000000E-06  5.43000000E-06  5.35000000E-06  5.25000000E-06  5.13000000E-06  5.00000000E-06  4.86000000E-06  4.72000000E-06  4.58000000E-06  4.45000000E-06  4.33000000E-06  4.23000000E-06  4.15000000E-06  4.09000000E-06  4.06000000E-06  4.06000000E-06
    5.95000000E-06  5.92000000E-06  5.86000000E-06  5.78000000E-06  5.68000000E-06  5.55000000E-06  5.42000000E-06  5.27000000E-06  5.12000000E-06  4.97000000E-06  4.82000000E-06  4.69000000E-06  4.58000000E-06  4.49000000E-06  4.42000000E-06  4.38000000E-06  4.37000000E-06  4.39000000E-06  4.44000000E-06  4.51000000E-06  4.60000000E-06  4.71000000E-06  4.84000000E-06  4.97000000E-06  5.10000000E-06  5.23000000E-06  5.35000000E-06  5.46000000E-06  5.55000000E-06  5.62000000E-06  5.66000000E-06  5.67000000E-06  5.66000000E-06  5.61000000E-06  5.54000000E-06  5.45000000E-06  5.33000000E-06  5.20000000E-06  5.05000000E-06  4.90000000E-06  4.75000000E-06  4.60000000E-06  4.47000000E-06  4.35000000E-06  4.25000000E-06  4.17000000E-06  4.12000000E-06  4.10000000E-06  4.10000000E-06  4.14000000E-06  4.20000000E-06  4.28000000E-06  4.39000000E-06  4.51000000E-06  4.64000000E-06  4.77000000E-06  4.90000000E-06  5.03000000E-06  5.15000000E-06  5.24000000E-06  5.32000000E-06  5.37000000E-06  5.40000000E-06  5.40000000E-06  5.36000000E-06  5.31000000E-06  5.22000000E-06  5.11000000E-06  4.99000000E-06  4.85000000E-06  4.70000000E-06  4.55000000E-06  4.40000000E-06  4.26000000E-06  4.14000000E-06  4.03000000E-06  3.94000000E-06  3.88000000E-06  3.85000000E-06  3.84000000E-06
    6.07000000E-06  6.04000000E-06  5.98000000E-06  5.89000000E-06  5.78000000E-06  5.65000000E-06  5.50000000E-06  5.34000000E-06  5.18000000E-06  5.02000000E-06  4.87000000E-06  4.73000000E-06  4.61000000E-06  4.52000000E-06  4.44000000E-06  4.40000000E-06  4.39000000E-06  4.40000000E-06  4.44000000E-06  4.51000000E-06  4.61000000E-06  4.72000000E-06  4.84000000E-06  4.98000000E-06  5.11000000E-06  5.24000000E-06  5.37000000E-06  5.48000000E-06  5.57000000E-06  5.63000000E-06  5.67000000E-06  5.68000000E-06  5.66000000E-06  5.61000000E-06  5.53000000E-06  5.43000000E-06  5.31000000E-06  5.17000000E-06  5.01000000E-06  4.85000000E-06  4.69000000E-06  4.54000000E-06  4.39000000E-06  4.26000000E-06  4.16000000E-06  4.07000000E-06  4.02000000E-06  3.99000000E-06  3.99000000E-06  4.03000000E-06  4.09000000E-06  4.17000000E-06  4.27000000E-06  4.40000000E-06  4.53000000E-06  4.66000000E-06  4.80000000E-06  4.93000000E-06  5.04000000E-06  5.14000000E-06  5.22000000E-06  5.27000000E-06  5.29000000E-06  5.29000000E-06  5.25000000E-06  5.19000000E-06  5.10000000E-06  4.98000000E-06  4.85000000E-06  4.70000000E-06  4.54000000E-06  4.38000000E-06  4.23000000E-06  4.08000000E-06  3.94000000E-06  3.83000000E-06  3.74000000E-06  3.67000000E-06  3.63000000E-06  3.63000000E-06
    6.19000000E-06  6.16000000E-06  6.09000000E-06  6.00000000E-06  5.88000000E-06  5.74000000E-06  5.59000000E-06  5.42000000E-06  5.25000000E-06  5.08000000E-06  4.92000000E-06  4.77000000E-06  4.65000000E-06  4.54000000E-06  4.46000000E-06  4.42000000E-06  4.40000000E-06  4.41000000E-06  4.45000000E-06  4.52000000E-06  4.61000000E-06  4.72000000E-06  4.85000000E-06  4.99000000E-06  5.12000000E-06  5.26000000E-06  5.38000000E-06  5.49000000E-06  5.58000000E-06  5.64000000E-06  5.68000000E-06  5.69000000E-06  5.66000000E-06  5.61000000E-06  5.53000000E-06  5.42000000E-06  5.29000000E-06  5.14000000E-06  4.97000000E-06  4.81000000E-06  4.64000000E-06  4.47000000E-06  4.32000000E-06  4.18000000E-06  4.07000000E-06  3.98000000E-06  3.92000000E-06  3.89000000E-06  3.89000000E-06  3.92000000E-06  3.97000000E-06  4.06000000E-06  4.16000000E-06  4.29000000E-06  4.42000000E-06  4.56000000E-06  4.69000000E-06  4.82000000E-06  4.94000000E-06  5.04000000E-06  5.11000000E-06  5.16000000E-06  5.19000000E-06  5.18000000E-06  5.14000000E-06  5.07000000E-06  4.97000000E-06  4.85000000E-06  4.71000000E-06  4.55000000E-06  4.39000000E-06  4.22000000E-06  4.05000000E-06  3.90000000E-06  3.75000000E-06  3.63000000E-06  3.53000000E-06  3.46000000E-06  3.42000000E-06  3.41000000E-06