# File generated by Flopy version 3.3.5 on 03/04/2022 at 11:14:43.
BEGIN options
END options

BEGIN dimensions
  MAXBOUND  3
END dimensions

BEGIN period  1
  1 46 80      24.00000000
  1 47 80      24.00000000
  1 48 80      24.00000000
END period  1

