# File generated by Flopy version 3.3.5 on 03/04/2022 at 11:17:52.
BEGIN options
  NEWTON
END options

BEGIN packages
  DIS6  .\ex-gwf-zaidel.dis  dis
  NPF6  .\ex-gwf-zaidel.npf  npf
  IC6  .\ex-gwf-zaidel.ic  ic
  CHD6  .\ex-gwf-zaidel.chd  chd_0
  OC6  .\ex-gwf-zaidel.oc  oc
END packages

