# File generated by Flopy version 3.3.5 on 03/04/2022 at 11:17:52.
BEGIN options
END options

BEGIN griddata
  icelltype
    CONSTANT  1
  k
    CONSTANT  1.00000000E-04
END griddata

