# File generated by Flopy version 3.3.5 on 03/04/2022 at 11:17:52.
BEGIN options
END options

BEGIN dimensions
  MAXBOUND  2
END dimensions

BEGIN period  1
  1 1 1      23.00000000
  1 1 200      10.00000000
END period  1

