# File generated by Flopy version 3.3.5 on 03/04/2022 at 11:17:52.
BEGIN options
  HEAD  FILEOUT  ex-gwf-zaidel.hds
END options

BEGIN period  1
  SAVE  HEAD  ALL
END period  1

