# File generated by Flopy version 3.3.5 on 03/04/2022 at 11:17:52.
BEGIN options
END options

BEGIN timing
  TDIS6  ex-gwf-zaidel.tdis
END timing

BEGIN models
  gwf6  ex-gwf-zaidel.nam  ex-gwf-zaidel
END models

BEGIN exchanges
END exchanges

BEGIN solutiongroup  1
  ims6  ex-gwf-zaidel.ims  ex-gwf-zaidel
END solutiongroup  1

