# File generated by Flopy version 3.3.5 on 03/04/2022 at 11:13:46.
BEGIN options
  SAVE_FLOWS
  NEWTON
END options

BEGIN packages
  DIS6  .\ex-gwf-csub-p02a.dis  dis
  OBS6  .\ex-gwf-csub-p02a.obs  obs_0
  IC6  .\ex-gwf-csub-p02a.ic  ic
  NPF6  .\ex-gwf-csub-p02a.npf  npf
  STO6  .\ex-gwf-csub-p02a.sto  sto
  CSUB6  .\ex-gwf-csub-p02a.csub  csub
  CHD6  .\ex-gwf-csub-p02a.chd  chd_0
  OC6  .\ex-gwf-csub-p02a.oc  oc
END packages

