# File generated by Flopy version 3.3.5 on 03/04/2022 at 11:13:46.
BEGIN options
END options

BEGIN timing
  TDIS6  ex-gwf-csub-p02a.tdis
END timing

BEGIN models
  gwf6  ex-gwf-csub-p02a.nam  ex-gwf-csub-p02a
END models

BEGIN exchanges
END exchanges

BEGIN solutiongroup  1
  ims6  ex-gwf-csub-p02a.ims  ex-gwf-csub-p02a
END solutiongroup  1

