# File generated by Flopy version 3.3.5 on 03/04/2022 at 11:14:17.
BEGIN options
END options

BEGIN timing
  TDIS6  ex-gwf-lgrv-gr.tdis
END timing

BEGIN models
  gwf6  parent.nam  parent
END models

BEGIN exchanges
END exchanges

BEGIN solutiongroup  1
  ims6  ex-gwf-lgrv-gr.ims  parent
END solutiongroup  1

