# File generated by Flopy version 3.3.5 on 03/04/2022 at 11:14:23.
BEGIN options
END options

BEGIN dimensions
  MAXBOUND  217
END dimensions

BEGIN period  1
  1 86 142      37.99300000       0.01837000      37.49300000
  1 86 143      37.94500000       0.01837000      37.44500000
  1 87 140      38.20100000       0.01837000      37.70100000
  1 87 141      38.13200000       0.01837000      37.63200000
  1 87 142      38.04200000       0.01837000      37.54200000
  1 87 143      37.89100000       0.01837000      37.39100000
  1 87 144      37.84100000       0.01837000      37.34100000
  1 87 145      37.74600000       0.01837000      37.24600000
  1 87 146      37.65000000       0.01837000      37.15000000
  1 87 147      37.60000000       0.01837000      37.10000000
  1 88 135      38.69900000       0.01837000      38.19900000
  1 88 136      38.61200000       0.01837000      38.11200000
  1 88 137      38.51800000       0.01837000      38.01800000
  1 88 138      38.41800000       0.01837000      37.91800000
  1 88 139      38.32700000       0.01837000      37.82700000
  1 88 140      38.25000000       0.01837000      37.75000000
  1 88 147      37.55200000       0.01837000      37.05200000
  1 89 133      38.89500000       0.01837000      38.39500000
  1 89 134      38.83300000       0.01837000      38.33300000
  1 89 135      38.76300000       0.01837000      38.26300000
  1 90 127      39.48000000       0.01837000      38.98000000
  1 90 128      39.39800000       0.01837000      38.89800000
  1 90 129      39.30500000       0.01837000      38.80500000
  1 90 130      39.19600000       0.01837000      38.69600000
  1 90 131      39.11700000       0.01837000      38.61700000
  1 90 132      39.02300000       0.01837000      38.52300000
  1 90 133      38.94200000       0.01837000      38.44200000
  1 91 124      39.75600000       0.01837000      39.25600000
  1 91 125      39.68300000       0.01837000      39.18300000
  1 91 126      39.58000000       0.01837000      39.08000000
  1 91 127      39.52700000       0.01837000      39.02700000
  1 92 122      39.95200000       0.01837000      39.45200000
  1 92 123      39.86600000       0.01837000      39.36600000
  1 92 124      39.80400000       0.01837000      39.30400000
  1 93 121      40.06000000       0.01837000      39.56000000
  1 93 122      40.01000000       0.01837000      39.51000000
  1 94 119      40.26700000       0.01837000      39.76700000
  1 94 120      40.21600000       0.01837000      39.71600000
  1 94 121      40.10800000       0.01837000      39.60800000
  1 95 117      40.49400000       0.01837000      39.99400000
  1 95 118      40.40900000       0.01837000      39.90900000
  1 95 119      40.31500000       0.01837000      39.81500000
  1 96 114      40.76400000       0.01837000      40.26400000
  1 96 115      40.69800000       0.01837000      40.19800000
  1 96 116      40.60200000       0.01837000      40.10200000
  1 96 117      40.54200000       0.01837000      40.04200000
  1 97 112      40.97300000       0.01837000      40.47300000
  1 97 113      40.89300000       0.01837000      40.39300000
  1 97 114      40.81500000       0.01837000      40.31500000
  1 98 110      41.18000000       0.01837000      40.68000000
  1 98 111      41.08800000       0.01837000      40.58800000
  1 98 112      41.02200000       0.01837000      40.52200000
  1 99 108      41.38500000       0.01837000      40.88500000
  1 99 109      41.28400000       0.01837000      40.78400000
  1 99 110      41.22900000       0.01837000      40.72900000
  1 100 106      41.56300000       0.01837000      41.06300000
  1 100 107      41.48300000       0.01837000      40.98300000
  1 100 108      41.43000000       0.01837000      40.93000000
  1 101 104      41.74700000       0.01837000      41.24700000
  1 101 105      41.68700000       0.01837000      41.18700000
  1 101 106      41.61400000       0.01837000      41.11400000
  1 102 99      42.24300000       0.01837000      41.74300000
  1 102 100      42.16700000       0.01837000      41.66700000
  1 102 101      42.07300000       0.01837000      41.57300000
  1 102 102      41.98000000       0.01837000      41.48000000
  1 102 103      41.87100000       0.01837000      41.37100000
  1 102 104      41.79800000       0.01837000      41.29800000
  1 103 71      45.04400000       0.01837000      44.54400000
  1 103 72      44.98000000       0.01837000      44.48000000
  1 103 73      44.87700000       0.01837000      44.37700000
  1 103 74      44.79300000       0.01837000      44.29300000
  1 103 92      42.90500000       0.01837000      42.40500000
  1 103 93      42.82000000       0.01837000      42.32000000
  1 103 94      42.72700000       0.01837000      42.22700000
  1 103 95      42.63400000       0.01837000      42.13400000
  1 103 96      42.54000000       0.01837000      42.04000000
  1 103 97      42.44700000       0.01837000      41.94700000
  1 103 98      42.35300000       0.01837000      41.85300000
  1 103 99      42.29000000       0.01837000      41.79000000
  1 104 70      45.15800000       0.01837000      44.65800000
  1 104 71      45.11300000       0.01837000      44.61300000
  1 104 74      44.73900000       0.01837000      44.23900000
  1 104 75      44.69000000       0.01837000      44.19000000
  1 104 77      44.38200000       0.01837000      43.88200000
  1 104 78      44.32700000       0.01837000      43.82700000
  1 104 79      44.24800000       0.01837000      43.74800000
  1 104 91      43.01200000       0.01837000      42.51200000
  1 104 92      42.97000000       0.01837000      42.47000000
  1 105 69      45.27100000       0.01837000      44.77100000
  1 105 70      45.21600000       0.01837000      44.71600000
  1 105 75      44.62600000       0.01837000      44.12600000
  1 105 76      44.52600000       0.01837000      44.02600000
  1 105 77      44.43700000       0.01837000      43.93700000
  1 105 79      44.20000000       0.01837000      43.70000000
  1 105 80      44.12500000       0.01837000      43.62500000
  1 105 81      44.05500000       0.01837000      43.55500000
  1 105 90      43.12600000       0.01837000      42.62600000
  1 105 91      43.06900000       0.01837000      42.56900000
  1 106 68      45.38500000       0.01837000      44.88500000
  1 106 69      45.32900000       0.01837000      44.82900000
  1 106 81      44.00300000       0.01837000      43.50300000
  1 106 82      43.94000000       0.01837000      43.44000000
  1 106 83      43.83300000       0.01837000      43.33300000
  1 106 84      43.74800000       0.01837000      43.24800000
  1 106 85      43.64600000       0.01837000      43.14600000
  1 106 86      43.55300000       0.01837000      43.05300000
  1 106 87      43.46000000       0.01837000      42.96000000
  1 106 88      43.36600000       0.01837000      42.86600000
  1 106 89      43.25900000       0.01837000      42.75900000
  1 106 90      43.18300000       0.01837000      42.68300000
  1 107 67      45.49800000       0.01837000      44.99800000
  1 107 68      45.43400000       0.01837000      44.93400000
  1 108 66      45.61000000       0.01837000      45.11000000
  1 108 67      45.56800000       0.01837000      45.06800000
  1 109 66      45.65900000       0.01837000      45.15900000
  1 110 65      45.77400000       0.01837000      45.27400000
  1 110 66      45.72500000       0.01837000      45.22500000
  1 111 64      45.88900000       0.01837000      45.38900000
  1 111 65      45.83100000       0.01837000      45.33100000
  1 112 63      46.00400000       0.01837000      45.50400000
  1 112 64      45.94600000       0.01837000      45.44600000
  1 113 62      46.11900000       0.01837000      45.61900000
  1 113 63      46.06100000       0.01837000      45.56100000
  1 114 61      46.23400000       0.01837000      45.73400000
  1 114 62      46.17600000       0.01837000      45.67600000
  1 115 60      46.34900000       0.01837000      45.84900000
  1 115 61      46.29100000       0.01837000      45.79100000
  1 116 59      46.46400000       0.01837000      45.96400000
  1 116 60      46.40600000       0.01837000      45.90600000
  1 117 58      46.57900000       0.01837000      46.07900000
  1 117 59      46.52100000       0.01837000      46.02100000
  1 118 57      46.69400000       0.01837000      46.19400000
  1 118 58      46.63600000       0.01837000      46.13600000
  1 119 56      46.80900000       0.01837000      46.30900000
  1 119 57      46.75100000       0.01837000      46.25100000
  1 120 55      46.92400000       0.01837000      46.42400000
  1 120 56      46.86500000       0.01837000      46.36500000
  1 121 54      47.03900000       0.01837000      46.53900000
  1 121 55      46.98000000       0.01837000      46.48000000
  1 122 53      47.15400000       0.01837000      46.65400000
  1 122 54      47.09500000       0.01837000      46.59500000
  1 123 52      47.26900000       0.01837000      46.76900000
  1 123 53      47.21000000       0.01837000      46.71000000
  1 124 51      47.38400000       0.01837000      46.88400000
  1 124 52      47.32500000       0.01837000      46.82500000
  1 125 50      47.50500000       0.01837000      47.00500000
  1 125 51      47.44000000       0.01837000      46.94000000
  1 126 48      47.67900000       0.01837000      47.17900000
  1 126 49      47.62000000       0.01837000      47.12000000
  1 126 50      47.55600000       0.01837000      47.05600000
  1 127 47      47.80100000       0.01837000      47.30100000
  1 127 48      47.73200000       0.01837000      47.23200000
  1 128 46      47.92400000       0.01837000      47.42400000
  1 128 47      47.85400000       0.01837000      47.35400000
  1 129 44      48.10000000       0.01837000      47.60000000
  1 129 45      48.04400000       0.01837000      47.54400000
  1 129 46      47.97700000       0.01837000      47.47700000
  1 130 43      48.22200000       0.01837000      47.72200000
  1 130 44      48.15300000       0.01837000      47.65300000
  1 131 42      48.34500000       0.01837000      47.84500000
  1 131 43      48.27500000       0.01837000      47.77500000
  1 132 40      48.52100000       0.01837000      48.02100000
  1 132 41      48.46700000       0.01837000      47.96700000
  1 132 42      48.39800000       0.01837000      47.89800000
  1 133 39      48.64400000       0.01837000      48.14400000
  1 133 40      48.57400000       0.01837000      48.07400000
  1 134 38      48.76600000       0.01837000      48.26600000
  1 134 39      48.69700000       0.01837000      48.19700000
  1 135 6      51.97700000       0.01837000      51.47700000
  1 135 7      51.97000000       0.01837000      51.47000000
  1 135 36      48.95800000       0.01837000      48.45800000
  1 135 37      48.88300000       0.01837000      48.38300000
  1 135 38      48.81900000       0.01837000      48.31900000
  1 136 7      51.91300000       0.01837000      51.41300000
  1 136 8      51.85500000       0.01837000      51.35500000
  1 136 34      49.16300000       0.01837000      48.66300000
  1 136 35      49.08600000       0.01837000      48.58600000
  1 136 36      49.00700000       0.01837000      48.50700000
  1 137 8      51.79800000       0.01837000      51.29800000
  1 137 9      51.74100000       0.01837000      51.24100000
  1 137 32      49.36800000       0.01837000      48.86800000
  1 137 33      49.28200000       0.01837000      48.78200000
  1 137 34      49.21200000       0.01837000      48.71200000
  1 138 9      51.68400000       0.01837000      51.18400000
  1 138 10      51.62600000       0.01837000      51.12600000
  1 138 30      49.55000000       0.01837000      49.05000000
  1 138 31      49.48000000       0.01837000      48.98000000
  1 138 32      49.41900000       0.01837000      48.91900000
  1 139 10      51.56900000       0.01837000      51.06900000
  1 139 11      51.51100000       0.01837000      51.01100000
  1 139 29      49.68100000       0.01837000      49.18100000
  1 139 30      49.60100000       0.01837000      49.10100000
  1 140 11      51.45400000       0.01837000      50.95400000
  1 140 12      51.39700000       0.01837000      50.89700000
  1 140 27      49.86300000       0.01837000      49.36300000
  1 140 28      49.78800000       0.01837000      49.28800000
  1 140 29      49.73200000       0.01837000      49.23200000
  1 141 12      51.34000000       0.01837000      50.84000000
  1 141 13      51.28200000       0.01837000      50.78200000
  1 141 25      50.04600000       0.01837000      49.54600000
  1 141 26      49.99300000       0.01837000      49.49300000
  1 141 27      49.91500000       0.01837000      49.41500000
  1 142 13      51.22500000       0.01837000      50.72500000
  1 142 14      51.16700000       0.01837000      50.66700000
  1 142 16      50.93500000       0.01837000      50.43500000
  1 142 17      50.84800000       0.01837000      50.34800000
  1 142 18      50.75500000       0.01837000      50.25500000
  1 142 19      50.66200000       0.01837000      50.16200000
  1 142 20      50.56900000       0.01837000      50.06900000
  1 142 21      50.47600000       0.01837000      49.97600000
  1 142 22      50.38300000       0.01837000      49.88300000
  1 142 23      50.28900000       0.01837000      49.78900000
  1 142 24      50.19100000       0.01837000      49.69100000
  1 142 25      50.09700000       0.01837000      49.59700000
  1 143 14      51.12900000       0.01837000      50.62900000
  1 143 15      51.03500000       0.01837000      50.53500000
  1 143 16      50.98100000       0.01837000      50.48100000
END period  1

