# File generated by Flopy version 3.3.5 on 03/04/2022 at 11:14:17.
BEGIN options
  LENGTH_UNITS  meters
END options

BEGIN dimensions
  NLAY  25
  NROW  183
  NCOL  147
END dimensions

BEGIN griddata
  delr
    CONSTANT      35.00000000
  delc
    CONSTANT      25.00000000
  top
    INTERNAL  FACTOR  1.0
        76.59000000      77.19300000      77.79500000      78.41700000      79.05900000      79.70000000      80.41400000      81.20100000      81.98800000      82.67600000      83.26600000      83.85600000      84.22500000      84.37300000      84.52100000      84.49600000      84.29800000      84.10000000      83.84000000      83.51900000      83.19700000      82.81200000      82.36300000      81.91500000      81.36700000      80.72200000      80.07700000      79.42100000      78.75600000      78.09200000      77.68700000      77.54400000      77.40100000      77.04100000      76.46400000      75.88700000      75.14000000      74.22200000      73.30400000      72.47400000      71.73100000      70.98800000      70.28200000      69.61100000      68.94000000      68.31500000      67.73500000      67.15500000      66.57000000      65.97900000      65.38800000      65.32800000      65.79900000      66.26900000      66.14000000      65.41200000      64.68300000      63.29300000      61.24000000      59.18700000      57.89000000      57.34900000      56.80800000      56.89500000      57.61200000      58.32900000      58.42600000      57.90500000      57.38400000      57.26700000      57.55500000      57.84300000      57.82000000      57.48600000      57.15200000      56.67200000      56.04500000      55.41800000      54.96900000      54.69800000      54.42700000      54.39300000      54.59800000      54.80300000      55.05500000      55.35600000      55.65700000      55.82600000      55.86300000      55.90000000      55.94500000      55.99700000      56.04900000      55.97200000      55.76300000      55.55500000      55.20500000      54.71100000      54.21700000      54.40700000      55.27900000      56.15200000      56.93300000      57.62300000      58.31300000      58.88200000      59.32900000      59.77600000      60.00200000      60.00500000      60.00900000      59.80600000      59.39600000      58.98600000      58.43100000      57.73100000      57.03100000      56.38300000      55.78700000      55.19000000      54.30800000      53.14100000      51.97300000      50.98600000      50.18100000      49.37500000      48.46700000      47.45800000      46.44800000      45.27900000      43.95200000      42.62400000      41.36900000      40.18600000      39.00200000      37.89300000      36.85600000      35.82000000      35.07100000      34.61100000      34.15100000      33.74000000      33.38000000      33.01900000      32.58200000      32.06800000      31.55400000
        76.12600000      76.61000000      77.09400000      77.65200000      78.28500000      78.91800000      79.64500000      80.46600000      81.28700000      82.03500000      82.71100000      83.38600000      83.74800000      83.79600000      83.84500000      83.83900000      83.78000000      83.72000000      83.54800000      83.26300000      82.97900000      82.59600000      82.11600000      81.63500000      81.12700000      80.59100000      80.05500000      79.40700000      78.64700000      77.88700000      77.39800000      77.18000000      76.96100000      76.52200000      75.86200000      75.20200000      74.38200000      73.40200000      72.42300000      71.55500000      70.80000000      70.04500000      69.31700000      68.61600000      67.91500000      67.32700000      66.85200000      66.37700000      65.83500000      65.22500000      64.61600000      64.43000000      64.67000000      64.90900000      64.67800000      63.97900000      63.27900000      62.09100000      60.41300000      58.73500000      57.82300000      57.67400000      57.52600000      57.74500000      58.33200000      58.91900000      58.96700000      58.47600000      57.98500000      57.85000000      58.07100000      58.29100000      58.27800000      58.03200000      57.78500000      57.44400000      57.00700000      56.57100000      56.27700000      56.12600000      55.97500000      55.97700000      56.13400000      56.29000000      56.50200000      56.77000000      57.03800000      57.17700000      57.18800000      57.19800000      57.15300000      57.05400000      56.95500000      56.83600000      56.70000000      56.56300000      56.19400000      55.59300000      54.99200000      55.01300000      55.65500000      56.29700000      56.97600000      57.69300000      58.41000000      58.97400000      59.38400000      59.79500000      60.00500000      60.01600000      60.02600000      59.88500000      59.59300000      59.30100000      58.75500000      57.95600000      57.15600000      56.42200000      55.75400000      55.08600000      54.29600000      53.38200000      52.46800000      51.62700000      50.86000000      50.09200000      49.18400000      48.13500000      47.08600000      45.87800000      44.51000000      43.14200000      41.83500000      40.59000000      39.34400000      38.18900000      37.12600000      36.06200000      35.28200000      34.78600000      34.28900000      33.86200000      33.50600000      33.14900000      32.73200000      32.25300000      31.77400000
        75.66200000      76.02700000      76.39200000      76.88600000      77.51100000      78.13600000      78.87600000      79.73100000      80.58600000      81.39400000      82.15500000      82.91700000      83.27200000      83.22000000      83.16800000      83.18200000      83.26100000      83.34000000      83.25600000      83.00800000      82.76000000      82.38000000      81.86800000      81.35500000      80.88600000      80.45900000      80.03300000      79.39200000      78.53700000      77.68200000      77.10800000      76.81500000      76.52200000      76.00400000      75.26000000      74.51700000      73.62400000      72.58300000      71.54100000      70.63700000      69.87000000      69.10200000      68.35300000      67.62100000      66.89000000      66.33900000      65.96900000      65.59900000      65.10000000      64.47200000      63.84300000      63.53300000      63.54000000      63.54800000      63.21700000      62.54600000      61.87500000      60.88800000      59.58600000      58.28300000      57.75500000      57.99900000      58.24400000      58.59500000      59.05200000      59.50900000      59.50700000      59.04700000      58.58700000      58.43300000      58.58600000      58.73900000      58.73600000      58.57700000      58.41800000      58.21600000      57.97000000      57.72400000      57.58500000      57.55400000      57.52200000      57.56100000      57.66900000      57.77800000      57.94900000      58.18400000      58.41900000      58.52900000      58.51200000      58.49600000      58.36200000      58.11100000      57.86000000      57.70100000      57.63600000      57.57000000      57.18400000      56.47500000      55.76700000      55.61900000      56.03000000      56.44200000      57.01900000      57.76300000      58.50700000      59.06600000      59.43900000      59.81300000      60.00900000      60.02600000      60.04400000      59.96500000      59.79000000      59.61600000      59.07900000      58.18000000      57.28100000      56.46200000      55.72200000      54.98200000      54.28300000      53.62300000      52.96300000      52.26900000      51.53900000      50.80900000      49.90000000      48.81200000      47.72400000      46.47600000      45.06800000      43.66000000      42.30200000      40.99300000      39.68500000      38.48600000      37.39500000      36.30500000      35.49300000      34.96000000      34.42700000      33.98400000      33.63200000      33.28000000      32.88200000      32.43800000      31.99500000
        75.47600000      75.68400000      75.89100000      76.25300000      76.77000000      77.28800000      77.97500000      78.83100000      79.68800000      80.55200000      81.42400000      82.29600000      82.70200000      82.64200000      82.58100000      82.62600000      82.77600000      82.92600000      82.87700000      82.62700000      82.37700000      81.99900000      81.49200000      80.98500000      80.55900000      80.21400000      79.86900000      79.24500000      78.34400000      77.44300000      76.76500000      76.30800000      75.85200000      75.23200000      74.44800000      73.66400000      72.71500000      71.60100000      70.48700000      69.51500000      68.68600000      67.85600000      67.10000000      66.41800000      65.73500000      65.26400000      65.00200000      64.74100000      64.27800000      63.61200000      62.94700000      62.53400000      62.37200000      62.21100000      61.82300000      61.20900000      60.59500000      59.82300000      58.89400000      57.96500000      57.70900000      58.12800000      58.54600000      58.96300000      59.37800000      59.79300000      59.82100000      59.46200000      59.10400000      58.99400000      59.13300000      59.27200000      59.31200000      59.25300000      59.19400000      59.10600000      58.98900000      58.87100000      58.85300000      58.93500000      59.01600000      59.10300000      59.19300000      59.28400000      59.42700000      59.62300000      59.81900000      59.87200000      59.78200000      59.69300000      59.47600000      59.13200000      58.78800000      58.59100000      58.54200000      58.49200000      58.09500000      57.35200000      56.60800000      56.33100000      56.51900000      56.70800000      57.16400000      57.88700000      58.61000000      59.15100000      59.51000000      59.86900000      60.07100000      60.11400000      60.15800000      60.12300000      60.00800000      59.89400000      59.35000000      58.37800000      57.40500000      56.52600000      55.74200000      54.95700000      54.30700000      53.79300000      53.27800000      52.68700000      52.01800000      51.34900000      50.47300000      49.39000000      48.30800000      47.04300000      45.59600000      44.15000000      42.74000000      41.36800000      39.99500000      38.74900000      37.63100000      36.51200000      35.67200000      35.11100000      34.55000000      34.09300000      33.73900000      33.38500000      32.99900000      32.58000000      32.16000000
        75.56800000      75.57900000      75.59100000      75.75200000      76.06200000      76.37300000      76.94100000      77.76700000      78.59300000      79.51000000      80.51700000      81.52400000      82.03900000      82.06100000      82.08400000      82.17200000      82.32500000      82.47800000      82.40900000      82.12000000      81.83000000      81.45400000      80.99000000      80.52600000      80.14700000      79.85500000      79.56300000      78.96700000      78.06900000      77.17100000      76.36800000      75.66000000      74.95200000      74.20700000      73.42500000      72.64300000      71.65400000      70.45700000      69.26000000      68.19100000      67.24900000      66.30700000      65.56000000      65.00600000      64.45200000      64.10100000      63.95200000      63.80300000      63.36800000      62.64800000      61.92700000      61.43300000      61.16500000      60.89800000      60.49900000      59.96800000      59.43800000      58.89400000      58.33600000      57.77900000      57.68700000      58.06000000      58.43300000      58.84900000      59.31000000      59.77000000      59.90700000      59.72100000      59.53500000      59.53200000      59.71100000      59.89000000      60.00600000      60.06000000      60.11400000      60.11500000      60.06400000      60.01200000      60.08000000      60.26800000      60.45600000      60.60200000      60.70600000      60.81000000      60.93700000      61.08700000      61.23700000      61.20700000      60.99800000      60.78900000      60.49500000      60.11700000      59.73900000      59.50600000      59.41700000      59.32800000      58.93000000      58.22300000      57.51500000      57.14800000      57.12100000      57.09500000      57.40900000      58.06400000      58.71900000      59.23000000      59.59600000      59.96300000      60.19100000      60.28000000      60.36900000      60.35800000      60.24600000      60.13500000      59.56900000      58.54800000      57.52800000      56.61600000      55.81300000      55.01000000      54.36900000      53.89100000      53.41300000      52.88100000      52.29600000      51.71100000      50.90200000      49.86900000      48.83600000      47.57800000      46.09500000      44.61200000      43.15100000      41.71200000      40.27200000      38.97900000      37.83200000      36.68400000      35.82000000      35.23900000      34.65800000      34.18800000      33.82700000      33.46600000      33.08300000      32.67700000      32.27200000
        75.65900000      75.47500000      75.29100000      75.25100000      75.35400000      75.45800000      75.90700000      76.70300000      77.49900000      78.46700000      79.60900000      80.75100000      81.37500000      81.48100000      81.58700000      81.71800000      81.87300000      82.02900000      81.94200000      81.61300000      81.28300000      80.90800000      80.48700000      80.06600000      79.73500000      79.49600000      79.25700000      78.68900000      77.79400000      76.89800000      75.97100000      75.01100000      74.05100000      73.18100000      72.40200000      71.62200000      70.59300000      69.31300000      68.03300000      66.86600000      65.81200000      64.75800000      64.01900000      63.59400000      63.16900000      62.93800000      62.90200000      62.86500000      62.45900000      61.68300000      60.90700000      60.33200000      59.95800000      59.58400000      59.17400000      58.72700000      58.28100000      57.96500000      57.77900000      57.59300000      57.66400000      57.99100000      58.31900000      58.73600000      59.24100000      59.74700000      59.99300000      59.98000000      59.96700000      60.07000000      60.28900000      60.50800000      60.70000000      60.86700000      61.03400000      61.12400000      61.13900000      61.15300000      61.30800000      61.60200000      61.89600000      62.10100000      62.21800000      62.33500000      62.44600000      62.55000000      62.65500000      62.54300000      62.21400000      61.88500000      61.51400000      61.10200000      60.69000000      60.42000000      60.29200000      60.16400000      59.76400000      59.09300000      58.42200000      57.96600000      57.72400000      57.48100000      57.65400000      58.24100000      58.82800000      59.30900000      59.68300000      60.05600000      60.31100000      60.44600000      60.58000000      60.59300000      60.48500000      60.37600000      59.78700000      58.71900000      57.65000000      56.70600000      55.88400000      55.06300000      54.43100000      53.99000000      53.54800000      53.07600000      52.57500000      52.07300000      51.33000000      50.34700000      49.36400000      48.11300000      46.59400000      45.07500000      43.56200000      42.05600000      40.55000000      39.20900000      38.03200000      36.85600000      35.96800000      35.36700000      34.76700000      34.28300000      33.91400000      33.54600000      33.16600000      32.77500000      32.38300000
        76.02300000      75.72600000      75.42900000      75.23400000      75.14000000      75.04700000      75.32500000      75.97600000      76.62600000      77.53400000      78.69900000      79.86400000      80.54600000      80.74400000      80.94200000      81.12400000      81.29100000      81.45700000      81.38900000      81.08500000      80.78100000      80.43900000      80.05800000      79.67600000      79.36500000      79.12400000      78.88300000      78.29300000      77.35300000      76.41300000      75.38900000      74.28100000      73.17400000      72.22400000      71.43000000      70.63700000      69.58100000      68.26300000      66.94600000      65.71500000      64.57200000      63.42900000      62.70700000      62.40700000      62.10600000      61.94500000      61.92400000      61.90200000      61.50600000      60.73600000      59.96500000      59.40200000      59.04600000      58.69000000      58.34300000      58.00600000      57.66900000      57.50000000      57.50000000      57.50000000      57.62700000      57.88100000      58.13500000      58.55200000      59.13100000      59.71000000      60.08700000      60.26100000      60.43500000      60.66400000      60.94800000      61.23300000      61.49500000      61.73600000      61.97700000      62.12500000      62.18000000      62.23400000      62.44600000      62.81500000      63.18400000      63.41900000      63.51800000      63.61700000      63.72400000      63.83900000      63.95400000      63.81300000      63.41600000      63.01900000      62.58900000      62.12800000      61.66600000      61.33600000      61.13700000      60.93900000      60.49300000      59.79900000      59.10600000      58.59500000      58.26700000      57.94000000      58.03000000      58.53800000      59.04600000      59.48100000      59.84500000      60.20800000      60.47200000      60.63600000      60.80000000      60.82100000      60.69900000      60.57700000      59.99900000      58.96400000      57.93000000      56.97100000      56.08900000      55.20700000      54.54800000      54.11000000      53.67200000      53.22200000      52.76000000      52.29800000      51.60400000      50.67800000      49.75100000      48.52500000      46.99900000      45.47300000      43.92800000      42.36200000      40.79700000      39.41700000      38.22300000      37.02800000      36.11600000      35.48600000      34.85600000      34.35800000      33.99100000      33.62500000      33.25500000      32.88200000      32.50900000
        76.66000000      76.33200000      76.00400000      75.70100000      75.42000000      75.14000000      75.19500000      75.58500000      75.97600000      76.70900000      77.78500000      78.86100000      79.54900000      79.84900000      80.14900000      80.39200000      80.57700000      80.76300000      80.74900000      80.53600000      80.32400000      80.04500000      79.70200000      79.35800000      79.03700000      78.74000000      78.44300000      77.77800000      76.74600000      75.71300000      74.62200000      73.47200000      72.32100000      71.33400000      70.51100000      69.68700000      68.61900000      67.30800000      65.99700000      64.73700000      63.52800000      62.31900000      61.62400000      61.44400000      61.26400000      61.12200000      61.01900000      60.91500000      60.51100000      59.80600000      59.10100000      58.64100000      58.42700000      58.21400000      58.00600000      57.80300000      57.60100000      57.50000000      57.50000000      57.50000000      57.57600000      57.72900000      57.88100000      58.29800000      58.97900000      59.66000000      60.18800000      60.56300000      60.93800000      61.31300000      61.68900000      62.06500000      62.39100000      62.66700000      62.94300000      63.11600000      63.18600000      63.25500000      63.49600000      63.90900000      64.32200000      64.55400000      64.60500000      64.65500000      64.77100000      64.95200000      65.13300000      65.01700000      64.60500000      64.19200000      63.72100000      63.19400000      62.66600000      62.25200000      61.95300000      61.65300000      61.11600000      60.34100000      59.56600000      59.03600000      58.75300000      58.46900000      58.53600000      58.95400000      59.37100000      59.74700000      60.08300000      60.41800000      60.67400000      60.85100000      61.02700000      61.04000000      60.88900000      60.73800000      60.20300000      59.28400000      58.36500000      57.41300000      56.42800000      55.44300000      54.71800000      54.25100000      53.78500000      53.31900000      52.85300000      52.38700000      51.72200000      50.85900000      49.99700000      48.81400000      47.31000000      45.80700000      44.24700000      42.63000000      41.01200000      39.60300000      38.40200000      37.20100000      36.26600000      35.59600000      34.92600000      34.41300000      34.05600000      33.70000000      33.34800000      32.99900000      32.65000000
        77.29600000      76.93800000      76.58000000      76.16800000      75.70100000      75.23400000      75.06500000      75.19500000      75.32500000      75.88400000      76.87100000      77.85900000      78.55300000      78.95500000      79.35700000      79.66000000      79.86400000      80.06800000      80.11000000      79.98800000      79.86600000      79.65200000      79.34600000      79.03900000      78.70900000      78.35600000      78.00200000      77.26300000      76.13800000      75.01400000      73.85500000      72.66200000      71.46800000      70.44500000      69.59100000      68.73700000      67.65800000      66.35300000      65.04800000      63.75900000      62.48400000      61.20900000      60.54100000      60.48100000      60.42100000      60.29900000      60.11300000      59.92800000      59.51600000      58.87600000      58.23600000      57.88000000      57.80900000      57.73800000      57.66900000      57.60100000      57.53400000      57.50000000      57.50000000      57.50000000      57.52500000      57.57600000      57.62700000      58.04400000      58.82600000      59.60900000      60.28800000      60.86500000      61.44100000      61.96300000      62.43000000      62.89700000      63.28600000      63.59800000      63.91000000      64.10800000      64.19200000      64.27600000      64.54700000      65.00300000      65.46000000      65.68900000      65.69100000      65.69400000      65.81800000      66.06500000      66.31200000      66.22200000      65.79300000      65.36500000      64.85300000      64.25900000      63.66500000      63.16800000      62.76800000      62.36800000      61.73900000      60.88200000      60.02500000      59.47700000      59.23800000      58.99900000      59.04300000      59.37000000      59.69600000      60.01400000      60.32100000      60.62800000      60.87700000      61.06600000      61.25500000      61.26000000      61.07900000      60.89900000      60.40700000      59.60400000      58.80100000      57.85500000      56.76700000      55.67900000      54.88800000      54.39300000      53.89800000      53.41600000      52.94500000      52.47500000      51.84000000      51.04100000      50.24200000      49.10300000      47.62200000      46.14100000      44.56600000      42.89700000      41.22800000      39.79000000      38.58200000      37.37400000      36.41500000      35.70500000      34.99500000      34.46700000      34.12200000      33.77600000      33.44100000      33.11600000      32.79000000
        78.19600000      77.80400000      77.41100000      76.91100000      76.30400000      75.69700000      75.31900000      75.17100000      75.02300000      75.35400000      76.16400000      76.97400000      77.62900000      78.12900000      78.62800000      78.98300000      79.19300000      79.40300000      79.49200000      79.46000000      79.42800000      79.27000000      78.98700000      78.70400000      78.36300000      77.96200000      77.56200000      76.75400000      75.53900000      74.32400000      73.10400000      71.87900000      70.65400000      69.58700000      68.67800000      67.76900000      66.67100000      65.38500000      64.09900000      62.88400000      61.74200000      60.59900000      60.02300000      60.01400000      60.00500000      59.86700000      59.60000000      59.33300000      58.95000000      58.45000000      57.95000000      57.66700000      57.60000000      57.53300000      57.50000000      57.50000000      57.50000000      57.52400000      57.57200000      57.62100000      57.62100000      57.57200000      57.52400000      57.90700000      58.72000000      59.53300000      60.30500000      61.03700000      61.76800000      62.41800000      62.98700000      63.55500000      64.04600000      64.46000000      64.87300000      65.11200000      65.17800000      65.24300000      65.50900000      65.97700000      66.44400000      66.68600000      66.70200000      66.71700000      66.87100000      67.16400000      67.45600000      67.40500000      67.00900000      66.61400000      66.06400000      65.35900000      64.65400000      64.02200000      63.46100000      62.90100000      62.18200000      61.30200000      60.42200000      59.89900000      59.73300000      59.56700000      59.60000000      59.83100000      60.06200000      60.30400000      60.55900000      60.81300000      61.04700000      61.26000000      61.47300000      61.48400000      61.29300000      61.10200000      60.65200000      59.94300000      59.23400000      58.28700000      57.10000000      55.91400000      55.04400000      54.48900000      53.93500000      53.40100000      52.88800000      52.37500000      51.73900000      50.97700000      50.21600000      49.14000000      47.74800000      46.35700000      44.79800000      43.07200000      41.34600000      39.88400000      38.68700000      37.48900000      36.53400000      35.82200000      35.11000000      34.58300000      34.24100000      33.89900000      33.56900000      33.25200000      32.93400000
        79.36100000      78.92900000      78.49700000      77.93100000      77.23100000      76.53100000      75.95800000      75.51300000      75.06800000      75.11800000      75.66300000      76.20800000      76.77700000      77.37000000      77.96400000      78.36200000      78.56400000      78.76600000      78.89500000      78.95200000      79.00800000      78.90000000      78.62600000      78.35300000      77.99700000      77.55900000      77.12100000      76.25000000      74.94700000      73.64300000      72.36900000      71.12400000      69.87900000      68.76200000      67.77200000      66.78200000      65.65900000      64.40400000      63.14800000      62.11400000      61.30100000      60.48900000      60.06800000      60.04100000      60.01400000      59.82600000      59.47900000      59.13100000      58.81500000      58.52900000      58.24400000      58.00100000      57.80100000      57.60000000      57.50000000      57.50000000      57.50000000      57.57200000      57.71700000      57.86200000      57.86200000      57.71700000      57.57200000      57.88600000      58.65900000      59.43100000      60.23800000      61.07900000      61.91900000      62.68000000      63.36000000      64.04000000      64.67100000      65.25200000      65.83300000      66.13000000      66.14200000      66.15400000      66.38400000      66.83000000      67.27600000      67.54400000      67.63500000      67.72700000      67.93000000      68.24700000      68.56400000      68.56600000      68.25300000      67.94100000      67.35400000      66.49300000      65.63100000      64.81100000      64.03300000      63.25400000      62.44300000      61.59900000      60.75600000      60.30200000      60.23800000      60.17400000      60.20700000      60.33700000      60.46700000      60.62000000      60.79600000      60.97300000      61.18500000      61.43300000      61.68000000      61.71300000      61.53000000      61.34700000      60.93800000      60.30200000      59.66600000      58.70800000      57.42700000      56.14700000      55.18400000      54.53900000      53.89400000      53.27500000      52.68100000      52.08800000      51.41700000      50.66800000      49.91900000      48.92600000      47.69000000      46.45500000      44.94300000      43.15400000      41.36600000      39.88700000      38.71700000      37.54700000      36.62300000      35.94700000      35.27000000      34.75900000      34.41300000      34.06800000      33.73200000      33.40700000      33.08200000