# File generated by Flopy version 3.3.5 on 03/04/2022 at 11:18:22.
BEGIN options
  TIME_UNITS  seconds
END options

BEGIN dimensions
  NPER  2
END dimensions

BEGIN perioddata
     160.00000000  160       1.00000000
    1340.00000000  1340       1.00000000
END perioddata

