# File generated by Flopy version 3.3.5 on 03/04/2022 at 11:18:22.
BEGIN options
END options

BEGIN griddata
  thetaim
    CONSTANT       1.58700000
  zetaim
    CONSTANT       0.00200000
END griddata

