# File generated by Flopy version 3.3.5 on 03/04/2022 at 11:14:35.
BEGIN options
  DIGITS  10
  PRINT_INPUT
END options

BEGIN continuous  FILEOUT  ex-gwf-maw-p02.maw.obs.csv
  head  head  1
  Q1  maw  1  1
  Q2  maw  1  2
  FW  fw-rate  1
END continuous  FILEOUT  ex-gwf-maw-p02.maw.obs.csv

