# Name file for MT3DMS, generated by Flopy version 3.3.5.
LIST              16  p04-mt.list
FTL               10  mt3d_link.ftl 
BTN               31  p04-mt.btn
ADV               32  p04-mt.adv
DSP               33  p04-mt.dsp
SSM               34  p04-mt.ssm
GCG               35  p04-mt.gcg
