# DIS package for MODFLOW-2005 generated by Flopy 3.3.5
         1       100       100         1         4         2
  0
CONSTANT    1.000000E+01                           #delr                          
CONSTANT    1.000000E+01                           #delc                          
CONSTANT    0.000000E+00                           #model_top                     
CONSTANT   -1.000000E+00                           #botm layer 1                  
   1000.000000           100  1.000000  SS 
