# File generated by Flopy version 3.3.5 on 03/04/2022 at 11:17:59.
BEGIN options
END options

BEGIN griddata
  diffc
    CONSTANT  1.84000000E-06
  alh
    CONSTANT       0.50000000
  ath1
    CONSTANT       0.05000000
  atv
    CONSTANT       0.05000000
END griddata

