# File generated by Flopy version 3.3.5 on 03/04/2022 at 11:17:59.
BEGIN griddata
  strt
    CONSTANT     285.15000000
END griddata

