# File generated by Flopy version 3.3.5 on 03/04/2022 at 11:17:59.
BEGIN options
  SAVE_FLOWS
END options

BEGIN packages
  DIS6  .\gwt-hecht-mendez.dis  dis
  IC6  .\gwt-hecht-mendez.ic  ic
  ADV6  .\gwt-hecht-mendez.adv  adv
  DSP6  .\gwt-hecht-mendez.dsp  dsp-1
  MST6  .\gwt-hecht-mendez.mst  mst-1
  SSM6  .\gwt-hecht-mendez.ssm  ssm
  SRC6  .\gwt-hecht-mendez.src  src-1
  FMI6  .\gwt-hecht-mendez.fmi  fmi
  OC6  .\gwt-hecht-mendez.oc  oc
END packages

