# File generated by Flopy version 3.3.5 on 03/04/2022 at 11:17:59.
BEGIN options
END options

BEGIN packagedata
  GWFHEAD  FILEIN  ../mf6gwf/gwf-hecht-mendez.hds
  GWFBUDGET  FILEIN  ../mf6gwf/gwf-hecht-mendez.bud
END packagedata

