# File generated by Flopy version 3.3.5 on 03/04/2022 at 11:14:40.
BEGIN options
  REWET  wetfct       0.50000000  iwetit  1  ihdwet  1
END options

BEGIN griddata
  icelltype  LAYERED
    CONSTANT  1
    CONSTANT  1
    CONSTANT  1
    CONSTANT  1
    CONSTANT  1
    CONSTANT  1
    CONSTANT  1
    CONSTANT  1
    CONSTANT  1
    CONSTANT  0
    CONSTANT  0
    CONSTANT  0
    CONSTANT  0
    CONSTANT  0
  k
    CONSTANT       5.00000000
  k33
    CONSTANT       0.25000000
  wetdry  LAYERED
    CONSTANT      -0.50000000
    CONSTANT      -0.50000000
    CONSTANT      -0.50000000
    CONSTANT      -0.50000000
    CONSTANT      -0.50000000
    CONSTANT      -0.50000000
    CONSTANT      -0.50000000
    CONSTANT      -0.50000000
    CONSTANT      -0.50000000
    CONSTANT       0.00000000
    CONSTANT       0.00000000
    CONSTANT       0.00000000
    CONSTANT       0.00000000
    CONSTANT       0.00000000
END griddata

