# File generated by Flopy version 3.3.5 on 03/04/2022 at 11:14:40.
BEGIN options
  TIME_UNITS  days
END options

BEGIN dimensions
  NPER  4
END dimensions

BEGIN perioddata
     190.00000000  10       1.00000000
     518.00000000  2       1.00000000
    1921.00000000  17       1.00000000
       1.00000000  1       1.00000000
END perioddata

