# File generated by Flopy version 3.3.5 on 03/04/2022 at 11:14:40.
BEGIN options
  LENGTH_UNITS  feet
END options

BEGIN dimensions
  NLAY  14
  NROW  40
  NCOL  40
END dimensions

BEGIN griddata
  delr
    CONSTANT     125.00000000
  delc
    CONSTANT     125.00000000
  top
    CONSTANT      80.00000000
  botm  LAYERED
    CONSTANT      65.00000000
    CONSTANT      60.00000000
    CONSTANT      55.00000000
    CONSTANT      50.00000000
    CONSTANT      45.00000000
    CONSTANT      40.00000000
    CONSTANT      35.00000000
    CONSTANT      30.00000000
    CONSTANT      25.00000000
    CONSTANT      20.00000000
    CONSTANT      15.00000000
    CONSTANT      10.00000000
    CONSTANT       5.00000000
    CONSTANT       0.00000000
END griddata

