# File generated by Flopy version 3.3.5 on 03/04/2022 at 11:17:47.
BEGIN options
  BUDGET  FILEOUT  ex-gwf-u1disv.cbc
  HEAD  FILEOUT  ex-gwf-u1disv.hds
END options

BEGIN period  1
  SAVE  HEAD  ALL
  SAVE  BUDGET  ALL
END period  1

