# File generated by Flopy version 3.3.5 on 03/04/2022 at 11:18:53.
BEGIN options
  auxiliary  aux1  aux2
  BOUNDNAMES
  PRINT_INPUT
  PRINT_CONCENTRATION
  PRINT_FLOWS
  SAVE_FLOWS
  CONCENTRATION  FILEOUT  trans.sft.bin
  BUDGET  FILEOUT  trans.sft.bud
  OBS6  FILEIN  trans.sft.obs
END options

BEGIN packagedata
  1       0.00000000      99.00000000     999.00000000  myreach1
  2       0.00000000      99.00000000     999.00000000  myreach2
  3       0.00000000      99.00000000     999.00000000  myreach3
  4       0.00000000      99.00000000     999.00000000  myreach4
  5       0.00000000      99.00000000     999.00000000  myreach5
  6       0.00000000      99.00000000     999.00000000  myreach6
  7       0.00000000      99.00000000     999.00000000  myreach7
  8       0.00000000      99.00000000     999.00000000  myreach8
  9       0.00000000      99.00000000     999.00000000  myreach9
  10       0.00000000      99.00000000     999.00000000  myreach10
  11       0.00000000      99.00000000     999.00000000  myreach11
  12       0.00000000      99.00000000     999.00000000  myreach12
  13       0.00000000      99.00000000     999.00000000  myreach13
  14       0.00000000      99.00000000     999.00000000  myreach14
  15       0.00000000      99.00000000     999.00000000  myreach15
  16       0.00000000      99.00000000     999.00000000  myreach16
  17       0.00000000      99.00000000     999.00000000  myreach17
  18       0.00000000      99.00000000     999.00000000  myreach18
  19       0.00000000      99.00000000     999.00000000  myreach19
  20       0.00000000      99.00000000     999.00000000  myreach20
  21       0.00000000      99.00000000     999.00000000  myreach21
  22       0.00000000      99.00000000     999.00000000  myreach22
  23       0.00000000      99.00000000     999.00000000  myreach23
  24       0.00000000      99.00000000     999.00000000  myreach24
  25       0.00000000      99.00000000     999.00000000  myreach25
  26       0.00000000      99.00000000     999.00000000  myreach26
  27       0.00000000      99.00000000     999.00000000  myreach27
  28       0.00000000      99.00000000     999.00000000  myreach28
  29       0.00000000      99.00000000     999.00000000  myreach29
  30       0.00000000      99.00000000     999.00000000  myreach30
  31       0.00000000      99.00000000     999.00000000  myreach31
  32       0.00000000      99.00000000     999.00000000  myreach32
  33       0.00000000      99.00000000     999.00000000  myreach33
  34       0.00000000      99.00000000     999.00000000  myreach34
  35       0.00000000      99.00000000     999.00000000  myreach35
  36       0.00000000      99.00000000     999.00000000  myreach36
  37       0.00000000      99.00000000     999.00000000  myreach37
  38       0.00000000      99.00000000     999.00000000  myreach38
END packagedata

BEGIN period  1
  1  STATUS  ACTIVE
END period  1

