# File generated by Flopy version 3.3.5 on 03/04/2022 at 11:18:53.
BEGIN options
  BUDGET  FILEOUT  trans.bud
  CONCENTRATION  FILEOUT  trans.ucn
  CONCENTRATION  PRINT_FORMAT  COLUMNS  23  WIDTH  15  DIGITS  6  GENERAL
END options

BEGIN period  1
  SAVE  CONCENTRATION  ALL
  SAVE  BUDGET  ALL
  PRINT  CONCENTRATION  LAST
  PRINT  BUDGET  ALL
END period  1

