# File generated by Flopy version 3.3.5 on 03/04/2022 at 11:18:53.
BEGIN options
  PRINT_OPTION  summary
END options

BEGIN nonlinear
  OUTER_MAXIMUM  50
  UNDER_RELAXATION  dbd
  UNDER_RELAXATION_THETA       0.70000000
END nonlinear

BEGIN linear
  LINEAR_ACCELERATION  bicgstab
  RELAXATION_FACTOR       0.97000000
END linear

