# File generated by Flopy version 3.3.5 on 03/04/2022 at 11:18:53.
BEGIN options
  SAVE_FLOWS
END options

BEGIN packages
  DIS6  .\trans.dis  dis
  IC6  .\trans.ic  ic
  MST6  .\trans.mst  mst
  ADV6  .\trans.adv  adv
  DSP6  .\trans.dsp  dsp
  SSM6  .\trans.ssm  ssm
  CNC6  .\trans.cnc  cnc-1
  LKT6  .\trans.lkt  lak-1
  SFT6  .\trans.sft  sfr-1
  FMI6  .\trans.fmi  fmi
  MVT6  .\trans.mvt  mvt
  OC6  .\trans.oc  oc
END packages

