# File generated by Flopy version 3.3.5 on 03/04/2022 at 11:18:53.
BEGIN options
  DIGITS  7
  PRINT_INPUT
END options

BEGIN continuous  FILEOUT  trans.sft.obs.csv
  sft1conc  CONCENTRATION  1
  sft2conc  CONCENTRATION  2
  sft3conc  CONCENTRATION  3
  sft4conc  CONCENTRATION  4
  sft5conc  CONCENTRATION  5
  sft6conc  CONCENTRATION  6
  sft7conc  CONCENTRATION  7
  sft8conc  CONCENTRATION  8
  sft9conc  CONCENTRATION  9
  sft10conc  CONCENTRATION  10
  sft11conc  CONCENTRATION  11
  sft12conc  CONCENTRATION  12
  sft13conc  CONCENTRATION  13
  sft14conc  CONCENTRATION  14
  sft15conc  CONCENTRATION  15
  sft16conc  CONCENTRATION  16
  sft17conc  CONCENTRATION  17
  sft18conc  CONCENTRATION  18
  sft19conc  CONCENTRATION  19
  sft20conc  CONCENTRATION  20
  sft21conc  CONCENTRATION  21
  sft22conc  CONCENTRATION  22
  sft23conc  CONCENTRATION  23
  sft24conc  CONCENTRATION  24
  sft25conc  CONCENTRATION  25
  sft26conc  CONCENTRATION  26
  sft27conc  CONCENTRATION  27
  sft28conc  CONCENTRATION  28
  sft29conc  CONCENTRATION  29
  sft30conc  CONCENTRATION  30
  sft31conc  CONCENTRATION  31
  sft32conc  CONCENTRATION  32
  sft33conc  CONCENTRATION  33
  sft34conc  CONCENTRATION  34
  sft35conc  CONCENTRATION  35
  sft36conc  CONCENTRATION  36
  sft37conc  CONCENTRATION  37
  sft38conc  CONCENTRATION  38
END continuous  FILEOUT  trans.sft.obs.csv

