# File generated by Flopy version 3.3.5 on 03/04/2022 at 11:13:46.
BEGIN options
  SAVE_FLOWS
  NEWTON
END options

BEGIN packages
  DIS6  .\ex-gwf-csub-p02c.dis  dis
  OBS6  .\ex-gwf-csub-p02c.obs  obs_0
  IC6  .\ex-gwf-csub-p02c.ic  ic
  NPF6  .\ex-gwf-csub-p02c.npf  npf
  STO6  .\ex-gwf-csub-p02c.sto  sto
  CSUB6  .\ex-gwf-csub-p02c.csub  csub
  CHD6  .\ex-gwf-csub-p02c.chd  chd_0
  OC6  .\ex-gwf-csub-p02c.oc  oc
END packages

