# BAS6 package for MODFLOW-2005 generated by Flopy 3.3.5
FREE
INTERNAL               1    (50I10) -1 #ibound layer 1                
         1         1         1         1         1         1         1         1         1         1         1         1         1         1         1         1         1         1         1         1         1         1         1         1         1         0         0         0         0         0         0         0         0         0         0         0         0         0         0         0         0         0         0         0         0         0         0         0         0         0
INTERNAL               1    (50I10) -1 #ibound layer 2                
         1         1         1         1         1         1         1         1         1         1         1         1         1         1         1         1         1         1         1         1         1         1         1         1         1         1         1         1         1         0         0         0         0         0         0         0         0         0         0         0         0         0         0         0         0         0         0         0         0         0
INTERNAL               1    (50I10) -1 #ibound layer 3                
         1         1         1         1         1         1         1         1         1         1         1         1         1         1         1         1         1         1         1         1         1         1         1         1         1         1         1         1         1         1         1         1         0         0         0         0         0         0         0         0         0         0         0         0         0         0         0         0         0         0
INTERNAL               1    (50I10) -1 #ibound layer 4                
         1         1         1         1         1         1         1         1         1         1         1         1         1         1         1         1         1         1         1         1         1         1         1         1         1         1         1         1         1         1         1         1         1         1         1         0         0         0         0         0         0         0         0         0         0         0         0         0         0         0
INTERNAL               1    (50I10) -1 #ibound layer 5                
         1         1         1         1         1         1         1         1         1         1         1         1         1         1         1         1         1         1         1         1         1         1         1         1         1         1         1         1         1         1         1         1         1         1         1         1         1         1         1         1         1         1         0         0         0         0         0         0         0         0
INTERNAL               1    (50I10) -1 #ibound layer 6                
         1         1         1         1         1         1         1         1         1         1         1         1         1         1         1         1         1         1         1         1         1         1         1         1         1         1         1         1         1         1         1         1         1         1         1         1         1         1         1         1         1         1         1         1         1         1         1         1         1        -1
INTERNAL               1    (50I10) -1 #ibound layer 7                
         1         1         1         1         1         1         1         1         1         1         1         1         1         1         1         1         1         1         1         1         1         1         1         1         1         1         1         1         1         1         1         1         1         1         1         1         1         1         1         1         1         1         1         1         1         1         1         1         1        -1
INTERNAL               1    (50I10) -1 #ibound layer 8                
         1         1         1         1         1         1         1         1         1         1         1         1         1         1         1         1         1         1         1         1         1         1         1         1         1         1         1         1         1         1         1         1         1         1         1         1         1         1         1         1         1         1         1         1         1         1         1         1         1        -1
INTERNAL               1    (50I10) -1 #ibound layer 9                
         1         1         1         1         1         1         1         1         1         1         1         1         1         1         1         1         1         1         1         1         1         1         1         1         1         1         1         1         1         1         1         1         1         1         1         1         1         1         1         1         1         1         1         1         1         1         1         1         1        -1
INTERNAL               1    (50I10) -1 #ibound layer 10               
         1         1         1         1         1         1         1         1         1         1         1         1         1         1         1         1         1         1         1         1         1         1         1         1         1         1         1         1         1         1         1         1         1         1         1         1         1         1         1         1         1         1         1         1         1         1         1         1         1        -1
INTERNAL               1    (50I10) -1 #ibound layer 11               
         1         1         1         1         1         1         1         1         1         1         1         1         1         1         1         1         1         1         1         1         1         1         1         1         1         1         1         1         1         1         1         1         1         1         1         1         1         1         1         1         1         1         1         1         1         1         1         1         1        -1
INTERNAL               1    (50I10) -1 #ibound layer 12               
         1         1         1         1         1         1         1         1         1         1         1         1         1         1         1         1         1         1         1         1         1         1         1         1         1         1         1         1         1         1         1         1         1         1         1         1         1         1         1         1         1         1         1         1         1         1         1         1         1        -1
INTERNAL               1    (50I10) -1 #ibound layer 13               
         1         1         1         1         1         1         1         1         1         1         1         1         1         1         1         1         1         1         1         1         1         1         1         1         1         1         1         1         1         1         1         1         1         1         1         1         1         1         1         1         1         1         1         1         1         1         1         1         1        -1
INTERNAL               1    (50I10) -1 #ibound layer 14               
         1         1         1         1         1         1         1         1         1         1         1         1         1         1         1         1         1         1         1         1         1         1         1         1         1         1         1         1         1         1         1         1         1         1         1         1         1         1         1         1         1         1         1         1         1         1         1         1         1        -1
INTERNAL               1    (50I10) -1 #ibound layer 15               
         1         1         1         1         1         1         1         1         1         1         1         1         1         1         1         1         1         1         1         1         1         1         1         1         1         1         1         1         1         1         1         1         1         1         1         1         1         1         1         1         1         1         1         1         1         1         1         1         1        -1
INTERNAL               1    (50I10) -1 #ibound layer 16               
         1         1         1         1         1         1         1         1         1         1         1         1         1         1         1         1         1         1         1         1         1         1         1         1         1         1         1         1         1         1         1         1         1         1         1         1         1         1         1         1         1         1         1         1         1         1         1         1         1        -1
INTERNAL               1    (50I10) -1 #ibound layer 17               
         1         1         1         1         1         1         1         1         1         1         1         1         1         1         1         1         1         1         1         1         1         1         1         1         1         1         1         1         1         1         1         1         1         1         1         1         1         1         1         1         1         1         1         1         1         1         1         1         1        -1
INTERNAL               1    (50I10) -1 #ibound layer 18               
         1         1         1         1         1         1         1         1         1         1         1         1         1         1         1         1         1         1         1         1         1         1         1         1         1         1         1         1         1         1         1         1         1         1         1         1         1         1         1         1         1         1         1         1         1         1         1         1         1        -1
INTERNAL               1    (50I10) -1 #ibound layer 19               
         1         1         1         1         1         1         1         1         1         1         1         1         1         1         1         1         1         1         1         1         1         1         1         1         1         1         1         1         1         1         1         1         1         1         1         1         1         1         1         1         1         1         1         1         1         1         1         1         1        -1
INTERNAL               1    (50I10) -1 #ibound layer 20               
         1         1         1         1         1         1         1         1         1         1         1         1         1         1         1         1         1         1         1         1         1         1         1         1         1         1         1         1         1         1         1         1         1         1         1         1         1         1         1         1         1         1         1         1         1         1         1         1         1        -1
INTERNAL               1    (50I10) -1 #ibound layer 21               
         1         1         1         1         1         1         1         1         1         1         1         1         1         1         1         1         1         1         1         1         1         1         1         1         1         1         1         1         1         1         1         1         1         1         1         1         1         1         1         1         1         1         1         1         1         1         1         1         1        -1
INTERNAL               1    (50I10) -1 #ibound layer 22               
         1         1         1         1         1         1         1         1         1         1         1         1         1         1         1         1         1         1         1         1         1         1         1         1         1         1         1         1         1         1         1         1         1         1         1         1         1         1         1         1         1         1         1         1         1         1         1         1         1        -1
INTERNAL               1    (50I10) -1 #ibound layer 23               
         1         1         1         1         1         1         1         1         1         1         1         1         1         1         1         1         1         1         1         1         1         1         1         1         1         1         1         1         1         1         1         1         1         1         1         1         1         1         1         1         1         1         1         1         1         1         1         1         1        -1
INTERNAL               1    (50I10) -1 #ibound layer 24               
         1         1         1         1         1         1         1         1         1         1         1         1         1         1         1         1         1         1         1         1         1         1         1         1         1         1         1         1         1         1         1         1         1         1         1         1         1         1         1         1         1         1         1         1         1         1         1         1         1        -1
INTERNAL               1    (50I10) -1 #ibound layer 25               
         1         1         1         1         1         1         1         1         1         1         1         1         1         1         1         1         1         1         1         1         1         1         1         1         1         1         1         1         1         1         1         1         1         1         1         1         1         1         1         1         1         1         1         1         1         1         1         1         1        -1
INTERNAL               1    (50I10) -1 #ibound layer 26               
         1         1         1         1         1         1         1         1         1         1         1         1         1         1         1         1         1         1         1         1         1         1         1         1         1         1         1         1         1         1         1         1         1         1         1         1         1         1         1         1         1         1         1         1         1         1         1         1         1        -1
INTERNAL               1    (50I10) -1 #ibound layer 27               
         1         1         1         1         1         1         1         1         1         1         1         1         1         1         1         1         1         1         1         1         1         1         1         1         1         1         1         1         1         1         1         1         1         1         1         1         1         1         1         1         1         1         1         1         1         1         1         1         1        -1
   -999.99
INTERNAL               1  (50E15.6) -1 #strt layer 1                  
   6.668450E+00   6.668100E+00   6.667390E+00   6.666320E+00   6.664900E+00   6.663120E+00   6.660990E+00   6.658500E+00   6.655660E+00   6.652460E+00   6.648910E+00   6.645000E+00   6.640730E+00   6.636110E+00   6.631120E+00   6.625790E+00   6.620090E+00   6.614040E+00   6.607630E+00   6.600870E+00   6.593740E+00   6.586210E+00   6.577930E+00   6.565480E+00   6.521730E+00  -9.990000E+02  -9.990000E+02  -9.990000E+02  -9.990000E+02  -9.990000E+02  -9.990000E+02  -9.990000E+02  -9.990000E+02  -9.990000E+02  -9.990000E+02  -9.990000E+02  -9.990000E+02  -9.990000E+02  -9.990000E+02  -9.990000E+02  -9.990000E+02  -9.990000E+02  -9.990000E+02  -9.990000E+02  -9.990000E+02  -9.990000E+02  -9.990000E+02  -9.990000E+02  -9.990000E+02  -9.990000E+02
INTERNAL               1  (50E15.6) -1 #strt layer 2                  
   6.668290E+00   6.667940E+00   6.667230E+00   6.666160E+00   6.664740E+00   6.662970E+00   6.660830E+00   6.658350E+00   6.655500E+00   6.652300E+00   6.648750E+00   6.644840E+00   6.640570E+00   6.635950E+00   6.630970E+00   6.625630E+00   6.619940E+00   6.613880E+00   6.607470E+00   6.600710E+00   6.593580E+00   6.586050E+00   6.577770E+00   6.565330E+00   6.521560E+00   6.461760E+00   6.397660E+00   6.330240E+00   6.259070E+00  -9.990000E+02  -9.990000E+02  -9.990000E+02  -9.990000E+02  -9.990000E+02  -9.990000E+02  -9.990000E+02  -9.990000E+02  -9.990000E+02  -9.990000E+02  -9.990000E+02  -9.990000E+02  -9.990000E+02  -9.990000E+02  -9.990000E+02  -9.990000E+02  -9.990000E+02  -9.990000E+02  -9.990000E+02  -9.990000E+02  -9.990000E+02
INTERNAL               1  (50E15.6) -1 #strt layer 3                  
   6.668140E+00   6.667780E+00   6.667070E+00   6.666010E+00   6.664580E+00   6.662810E+00   6.660680E+00   6.658190E+00   6.655350E+00   6.652150E+00   6.648590E+00   6.644680E+00   6.640410E+00   6.635790E+00   6.630810E+00   6.625470E+00   6.619780E+00   6.613730E+00   6.607320E+00   6.600550E+00   6.593420E+00   6.585900E+00   6.577620E+00   6.565250E+00   6.521420E+00   6.461570E+00   6.397460E+00   6.330030E+00   6.258900E+00   6.184850E+00   6.107290E+00   6.025660E+00  -9.990000E+02  -9.990000E+02  -9.990000E+02  -9.990000E+02  -9.990000E+02  -9.990000E+02  -9.990000E+02  -9.990000E+02  -9.990000E+02  -9.990000E+02  -9.990000E+02  -9.990000E+02  -9.990000E+02  -9.990000E+02  -9.990000E+02  -9.990000E+02  -9.990000E+02  -9.990000E+02
INTERNAL               1  (50E15.6) -1 #strt layer 4                  
   6.667980E+00   6.667620E+00   6.666910E+00   6.665850E+00   6.664430E+00   6.662650E+00   6.660520E+00   6.658030E+00   6.655190E+00   6.651990E+00   6.648440E+00   6.644520E+00   6.640260E+00   6.635630E+00   6.630650E+00   6.625320E+00   6.619620E+00   6.613570E+00   6.607160E+00   6.600390E+00   6.593270E+00   6.585740E+00   6.577490E+00   6.565260E+00   6.521310E+00   6.461400E+00   6.397270E+00   6.329820E+00   6.258710E+00   6.184640E+00   6.107060E+00   6.025460E+00   5.940320E+00   5.851430E+00   5.757440E+00  -9.990000E+02  -9.990000E+02  -9.990000E+02  -9.990000E+02  -9.990000E+02  -9.990000E+02  -9.990000E+02  -9.990000E+02  -9.990000E+02  -9.990000E+02  -9.990000E+02  -9.990000E+02  -9.990000E+02  -9.990000E+02  -9.990000E+02
INTERNAL               1  (50E15.6) -1 #strt layer 5                  
   6.667820E+00   6.667470E+00   6.666760E+00   6.665690E+00   6.664270E+00   6.662500E+00   6.660370E+00   6.657880E+00   6.655030E+00   6.651840E+00   6.648280E+00   6.644370E+00   6.640100E+00   6.635480E+00   6.630500E+00   6.625160E+00   6.619460E+00   6.613410E+00   6.607000E+00   6.600240E+00   6.593110E+00   6.585590E+00   6.577360E+00   6.565340E+00   6.521250E+00   6.461240E+00   6.397080E+00   6.329620E+00   6.258530E+00   6.184440E+00   6.106840E+00   6.025250E+00   5.940100E+00   5.851170E+00   5.757270E+00   5.660900E+00   5.584500E+00   5.567120E+00   5.553070E+00   5.538840E+00   5.524240E+00   5.509270E+00  -9.990000E+02  -9.990000E+02  -9.990000E+02  -9.990000E+02  -9.990000E+02  -9.990000E+02  -9.990000E+02  -9.990000E+02
INTERNAL               1  (50E15.6) -1 #strt layer 6                  
   6.667670E+00   6.667310E+00   6.666600E+00   6.665540E+00   6.664120E+00   6.662340E+00   6.660210E+00   6.657720E+00   6.654880E+00   6.651680E+00   6.648130E+00   6.644210E+00   6.639950E+00   6.635320E+00   6.630340E+00   6.625000E+00   6.619310E+00   6.613260E+00   6.606850E+00   6.600080E+00   6.592950E+00   6.585440E+00   6.577250E+00   6.565500E+00   6.521220E+00   6.461080E+00   6.396910E+00   6.329430E+00   6.258350E+00   6.184250E+00   6.106630E+00   6.025050E+00   5.939880E+00   5.850920E+00   5.757050E+00   5.660630E+00   5.584270E+00   5.566960E+00   5.552910E+00   5.538680E+00   5.524080E+00   5.509110E+00   5.493770E+00   5.478070E+00   5.461990E+00   5.445540E+00   5.428720E+00   5.411530E+00   5.393940E+00   5.375000E+00
INTERNAL               1  (50E15.6) -1 #strt layer 7                  
   6.667520E+00   6.667160E+00   6.666450E+00   6.665390E+00   6.663960E+00   6.662190E+00   6.660060E+00   6.657570E+00   6.654730E+00   6.651530E+00   6.647970E+00   6.644060E+00   6.639790E+00   6.635170E+00   6.630190E+00   6.624850E+00   6.619160E+00   6.613100E+00   6.606700E+00   6.599930E+00   6.592800E+00   6.585290E+00   6.577140E+00   6.565750E+00   6.521230E+00   6.460940E+00   6.396740E+00   6.329250E+00   6.258180E+00   6.184060E+00   6.106430E+00   6.024850E+00   5.939680E+00   5.850680E+00   5.756840E+00   5.660320E+00   5.583890E+00   5.566790E+00   5.552750E+00   5.538520E+00   5.523920E+00   5.508950E+00   5.493610E+00   5.477910E+00   5.461830E+00   5.445380E+00   5.428560E+00   5.411370E+00   5.393780E+00   5.375000E+00
INTERNAL               1  (50E15.6) -1 #strt layer 8                  
   6.667360E+00   6.667010E+00   6.666300E+00   6.665230E+00   6.663810E+00   6.662040E+00   6.659900E+00   6.657420E+00   6.654570E+00   6.651370E+00   6.647820E+00   6.643910E+00   6.639640E+00   6.635020E+00   6.630030E+00   6.624700E+00   6.619000E+00   6.612950E+00   6.606540E+00   6.599780E+00   6.592650E+00   6.585140E+00   6.577040E+00   6.566080E+00   6.521290E+00   6.460810E+00   6.396580E+00   6.329080E+00   6.258020E+00   6.183890E+00   6.106240E+00   6.024670E+00   5.939480E+00   5.850450E+00   5.756630E+00   5.659960E+00   5.583370E+00   5.566610E+00   5.552590E+00   5.538360E+00   5.523760E+00   5.508790E+00   5.493450E+00   5.477750E+00   5.461670E+00   5.445220E+00   5.428400E+00   5.411210E+00   5.393620E+00   5.375000E+00
INTERNAL               1  (50E15.6) -1 #strt layer 9                  
   6.667210E+00   6.666860E+00   6.666150E+00   6.665080E+00   6.663660E+00   6.661880E+00   6.659750E+00   6.657270E+00   6.654420E+00   6.651220E+00   6.647670E+00   6.643760E+00   6.639490E+00   6.634860E+00   6.629880E+00   6.624550E+00   6.618850E+00   6.612800E+00   6.606390E+00   6.599620E+00   6.592500E+00   6.584990E+00   6.576950E+00   6.566490E+00   6.521380E+00   6.460680E+00   6.396430E+00   6.328920E+00   6.257870E+00   6.183720E+00   6.106050E+00   6.024490E+00   5.939290E+00   5.850240E+00   5.756430E+00   5.659540E+00   5.582690E+00   5.566420E+00   5.552430E+00   5.538200E+00   5.523600E+00   5.508640E+00   5.493290E+00   5.477590E+00   5.461510E+00   5.445060E+00   5.428240E+00   5.411050E+00   5.393460E+00   5.375000E+00
INTERNAL               1  (50E15.6) -1 #strt layer 10                 
   6.667060E+00   6.666710E+00   6.666000E+00   6.664930E+00   6.663510E+00   6.661730E+00   6.659600E+00   6.657110E+00   6.654270E+00   6.651070E+00   6.647520E+00   6.643600E+00   6.639340E+00   6.634710E+00   6.629730E+00   6.624390E+00   6.618700E+00   6.612650E+00   6.606240E+00   6.599470E+00   6.592350E+00   6.584850E+00   6.576860E+00   6.566990E+00   6.521510E+00   6.460570E+00   6.396290E+00   6.328760E+00   6.257720E+00   6.183560E+00   6.105880E+00   6.024320E+00   5.939120E+00   5.850030E+00   5.756250E+00   5.659080E+00   5.581860E+00   5.566230E+00   5.552280E+00   5.538040E+00   5.523450E+00   5.508480E+00   5.493140E+00   5.477430E+00   5.461350E+00   5.444910E+00   5.428090E+00   5.410890E+00   5.393310E+00   5.375000E+00
INTERNAL               1  (50E15.6) -1 #strt layer 11                 
   6.666910E+00   6.666560E+00   6.665850E+00   6.664780E+00   6.663360E+00   6.661580E+00   6.659450E+00   6.656960E+00   6.654120E+00   6.650920E+00   6.647370E+00   6.643450E+00   6.639190E+00   6.634560E+00   6.629580E+00   6.624240E+00   6.618550E+00   6.612500E+00   6.606090E+00   6.599320E+00   6.592200E+00   6.584700E+00   6.576780E+00   6.567570E+00   6.521680E+00   6.460460E+00   6.396160E+00   6.328620E+00   6.257590E+00   6.183410E+00   6.105720E+00   6.024170E+00   5.938950E+00   5.849840E+00   5.756060E+00   5.658570E+00   5.580880E+00   5.566030E+00   5.552120E+00   5.537890E+00   5.523290E+00   5.508320E+00   5.492980E+00   5.477280E+00   5.461200E+00   5.444750E+00   5.427930E+00   5.410740E+00   5.393160E+00   5.375000E+00
INTERNAL               1  (50E15.6) -1 #strt layer 12                 
   6.666760E+00   6.666410E+00   6.665700E+00   6.664630E+00   6.663210E+00   6.661430E+00   6.659300E+00   6.656810E+00   6.653970E+00   6.650770E+00   6.647220E+00   6.643310E+00   6.639040E+00   6.634410E+00   6.629430E+00   6.624090E+00   6.618400E+00   6.612350E+00   6.605940E+00   6.599170E+00   6.592050E+00   6.584560E+00   6.576700E+00   6.568250E+00   6.521890E+00   6.460360E+00   6.396030E+00   6.328480E+00   6.257460E+00   6.183270E+00   6.105570E+00   6.024020E+00   5.938790E+00   5.849660E+00   5.755890E+00   5.658010E+00   5.579750E+00   5.565840E+00   5.551960E+00   5.537730E+00   5.523130E+00   5.508170E+00   5.492830E+00   5.477120E+00   5.461040E+00   5.444590E+00   5.427770E+00   5.410580E+00   5.393010E+00   5.375000E+00
INTERNAL               1  (50E15.6) -1 #strt layer 13                 
   6.666680E+00   6.666330E+00   6.665620E+00   6.664550E+00   6.663130E+00   6.661360E+00   6.659220E+00   6.656740E+00   6.653890E+00   6.650690E+00   6.647140E+00   6.643230E+00   6.638960E+00   6.634340E+00   6.629350E+00   6.624020E+00   6.618320E+00   6.612270E+00   6.605860E+00   6.599090E+00   6.591970E+00   6.584490E+00   6.576660E+00   6.568660E+00   6.522140E+00   6.460270E+00   6.395910E+00   6.328350E+00   6.257340E+00   6.183140E+00   6.105430E+00   6.023880E+00   5.938640E+00   5.849500E+00   5.755730E+00   5.657390E+00   5.579060E+00   5.565730E+00   5.551880E+00   5.537650E+00   5.523050E+00   5.508090E+00   5.492750E+00   5.477040E+00   5.460960E+00   5.444510E+00   5.427690E+00   5.410500E+00   5.392940E+00   5.375000E+00
INTERNAL               1  (50E15.6) -1 #strt layer 14                 
   6.666680E+00   6.666320E+00   6.665610E+00   6.664550E+00   6.663130E+00   6.661350E+00   6.659220E+00   6.656730E+00   6.653890E+00   6.650690E+00   6.647130E+00   6.643220E+00   6.638950E+00   6.634330E+00   6.629350E+00   6.624010E+00   6.618310E+00   6.612260E+00   6.605850E+00   6.599090E+00   6.591960E+00   6.584480E+00   6.576660E+00   6.568690E+00   6.522320E+00   6.460180E+00   6.395800E+00   6.328230E+00   6.257220E+00   6.183020E+00   6.105300E+00   6.023750E+00   5.938510E+00   5.849340E+00   5.755580E+00   5.656910E+00   5.579010E+00   5.565720E+00   5.551870E+00   5.537640E+00   5.523050E+00   5.508080E+00   5.492740E+00   5.477030E+00   5.460950E+00   5.444510E+00   5.427680E+00   5.410490E+00   5.392930E+00   5.375000E+00
INTERNAL               1  (50E15.6) -1 #strt layer 15                 
   6.666670E+00   6.666320E+00   6.665610E+00   6.664540E+00   6.663120E+00   6.661340E+00   6.659210E+00   6.656720E+00   6.653880E+00   6.650680E+00   6.647130E+00   6.643220E+00   6.638950E+00   6.634320E+00   6.629340E+00   6.624000E+00   6.618310E+00   6.612260E+00   6.605850E+00   6.599080E+00   6.591960E+00   6.584480E+00   6.576650E+00   6.568710E+00   6.522430E+00   6.460100E+00   6.395700E+00   6.328120E+00   6.257120E+00   6.182910E+00   6.105170E+00   6.023620E+00   5.938380E+00   5.849200E+00   5.755440E+00   5.656550E+00   5.578980E+00   5.565720E+00   5.551870E+00   5.537640E+00   5.523040E+00   5.508070E+00   5.492730E+00   5.477030E+00   5.460950E+00   5.444500E+00   5.427680E+00   5.410490E+00   5.392920E+00   5.375000E+00
INTERNAL               1  (50E15.6) -1 #strt layer 16                 
   6.666670E+00   6.666310E+00   6.665600E+00   6.664540E+00   6.663120E+00   6.661340E+00   6.659210E+00   6.656720E+00   6.653880E+00   6.650680E+00   6.647120E+00   6.643210E+00   6.638940E+00   6.634320E+00   6.629340E+00   6.624000E+00   6.618300E+00   6.612250E+00   6.605840E+00   6.599080E+00   6.591950E+00   6.584470E+00   6.576650E+00   6.568720E+00   6.522480E+00   6.460030E+00   6.395610E+00   6.328020E+00   6.257020E+00   6.182800E+00   6.105060E+00   6.023510E+00   5.938260E+00   5.849060E+00   5.755320E+00   5.656310E+00   5.578960E+00   5.565710E+00   5.551860E+00   5.537630E+00   5.523040E+00   5.508070E+00   5.492730E+00   5.477020E+00   5.460940E+00   5.444490E+00   5.427670E+00   5.410480E+00   5.392920E+00   5.375000E+00
INTERNAL               1  (50E15.6) -1 #strt layer 17                 
   6.666660E+00   6.666310E+00   6.665600E+00   6.664530E+00   6.663110E+00   6.661340E+00   6.659200E+00   6.656720E+00   6.653870E+00   6.650670E+00   6.647120E+00   6.643210E+00   6.638940E+00   6.634310E+00   6.629330E+00   6.624000E+00   6.618300E+00   6.612250E+00   6.605840E+00   6.599070E+00   6.591950E+00   6.584470E+00   6.576650E+00   6.568730E+00   6.522470E+00   6.459960E+00   6.395520E+00   6.327930E+00   6.256930E+00   6.182700E+00   6.104960E+00   6.023410E+00   5.938150E+00   5.848940E+00   5.755210E+00   5.656190E+00   5.578950E+00   5.565710E+00   5.551860E+00   5.537630E+00   5.523030E+00   5.508060E+00   5.492720E+00   5.477020E+00   5.460940E+00   5.444490E+00   5.427670E+00   5.410480E+00   5.392910E+00   5.375000E+00
INTERNAL               1  (50E15.6) -1 #strt layer 18                 