# DIS package for MODFLOW-2005 generated by Flopy 3.3.5
        27         1        50         2         4         2
  0  0  0  0  0  0  0  0  0  0  0  0  0  0  0  0  0  0  0  0  0  0  0  0  0  0  0
CONSTANT    5.000000E+00                           #delr                          
CONSTANT    1.000000E+00                           #delc                          
CONSTANT    6.750000E+00                           #model_top                     
CONSTANT    6.500000E+00                           #botm layer 1                  
CONSTANT    6.250000E+00                           #botm layer 2                  
CONSTANT    6.000000E+00                           #botm layer 3                  
CONSTANT    5.750000E+00                           #botm layer 4                  
CONSTANT    5.500000E+00                           #botm layer 5                  
CONSTANT    5.250000E+00                           #botm layer 6                  
CONSTANT    5.000000E+00                           #botm layer 7                  
CONSTANT    4.750000E+00                           #botm layer 8                  
CONSTANT    4.500000E+00                           #botm layer 9                  
CONSTANT    4.250000E+00                           #botm layer 10                 
CONSTANT    4.000000E+00                           #botm layer 11                 
CONSTANT    3.750000E+00                           #botm layer 12                 
CONSTANT    3.500000E+00                           #botm layer 13                 
CONSTANT    3.250000E+00                           #botm layer 14                 
CONSTANT    3.000000E+00                           #botm layer 15                 
CONSTANT    2.750000E+00                           #botm layer 16                 
CONSTANT    2.500000E+00                           #botm layer 17                 
CONSTANT    2.250000E+00                           #botm layer 18                 
CONSTANT    2.000000E+00                           #botm layer 19                 
CONSTANT    1.750000E+00                           #botm layer 20                 
CONSTANT    1.500000E+00                           #botm layer 21                 
CONSTANT    1.250000E+00                           #botm layer 22                 
CONSTANT    1.000000E+00                           #botm layer 23                 
CONSTANT    7.500000E-01                           #botm layer 24                 
CONSTANT    5.000000E-01                           #botm layer 25                 
CONSTANT    2.500000E-01                           #botm layer 26                 
CONSTANT    0.000000E+00                           #botm layer 27                 
   1825.000000           365  1.000000  TR 
   5475.000000          1095  1.000000  TR 
