# Name file for MODFLOW-2005, generated by Flopy version 3.3.5.
#xll:0.0; yll:0.0; rotation:0.0; units:meters; lenuni:2; start_datetime:1-1-1970
LIST               2  p08-mf.list
DIS               11  p08-mf.dis
BAS6              13  p08-mf.bas
LPF               15  p08-mf.lpf
RCH               19  p08-mf.rch
PCG               27  p08-mf.pcg
LMT6              30  p08-mf.lmt6
