# Name file for MT3DMS, generated by Flopy version 3.3.5.
LIST              16  p08_mt.list
FTL               10  mt3d_link.ftl 
BTN               31  p08_mt.btn
ADV               32  p08_mt.adv
DSP               33  p08_mt.dsp
SSM               34  p08_mt.ssm
GCG               35  p08_mt.gcg
