## BTN for MT3DMS, generated by Flopy.
##
        27         1        50         2         1         1
D   M   KG  
T T T F T 
 1 1 1 1 1 1 0 0 0 0 0 0 0 0 0 0 0 0 0 0 0 0 0 0 0 0 0
         0         5                           -1 #delr
         0         1                           -1 #delc
         0      6.75                           -1 #htop
        31         1          (50E15.6)        -1 #dz layer 1
   2.500000E-01   2.500000E-01   2.500000E-01   2.500000E-01   2.500000E-01   2.500000E-01   2.500000E-01   2.500000E-01   2.500000E-01   2.500000E-01   2.500000E-01   2.500000E-01   2.500000E-01   2.500000E-01   2.500000E-01   2.500000E-01   2.500000E-01   2.500000E-01   2.500000E-01   2.500000E-01   2.500000E-01   2.500000E-01   2.500000E-01   2.500000E-01   2.500000E-01   2.500000E-01   2.500000E-01   2.500000E-01   2.500000E-01   2.500000E-01   2.500000E-01   2.500000E-01   2.500000E-01   2.500000E-01   2.500000E-01   2.500000E-01   2.500000E-01   2.500000E-01   2.500000E-01   2.500000E-01   2.500000E-01   2.500000E-01   2.500000E-01   2.500000E-01   2.500000E-01   2.500000E-01   2.500000E-01   2.500000E-01   2.500000E-01   2.500000E-01
        31         1          (50E15.6)        -1 #dz layer 2
   2.500000E-01   2.500000E-01   2.500000E-01   2.500000E-01   2.500000E-01   2.500000E-01   2.500000E-01   2.500000E-01   2.500000E-01   2.500000E-01   2.500000E-01   2.500000E-01   2.500000E-01   2.500000E-01   2.500000E-01   2.500000E-01   2.500000E-01   2.500000E-01   2.500000E-01   2.500000E-01   2.500000E-01   2.500000E-01   2.500000E-01   2.500000E-01   2.500000E-01   2.500000E-01   2.500000E-01   2.500000E-01   2.500000E-01   2.500000E-01   2.500000E-01   2.500000E-01   2.500000E-01   2.500000E-01   2.500000E-01   2.500000E-01   2.500000E-01   2.500000E-01   2.500000E-01   2.500000E-01   2.500000E-01   2.500000E-01   2.500000E-01   2.500000E-01   2.500000E-01   2.500000E-01   2.500000E-01   2.500000E-01   2.500000E-01   2.500000E-01
        31         1          (50E15.6)        -1 #dz layer 3
   2.500000E-01   2.500000E-01   2.500000E-01   2.500000E-01   2.500000E-01   2.500000E-01   2.500000E-01   2.500000E-01   2.500000E-01   2.500000E-01   2.500000E-01   2.500000E-01   2.500000E-01   2.500000E-01   2.500000E-01   2.500000E-01   2.500000E-01   2.500000E-01   2.500000E-01   2.500000E-01   2.500000E-01   2.500000E-01   2.500000E-01   2.500000E-01   2.500000E-01   2.500000E-01   2.500000E-01   2.500000E-01   2.500000E-01   2.500000E-01   2.500000E-01   2.500000E-01   2.500000E-01   2.500000E-01   2.500000E-01   2.500000E-01   2.500000E-01   2.500000E-01   2.500000E-01   2.500000E-01   2.500000E-01   2.500000E-01   2.500000E-01   2.500000E-01   2.500000E-01   2.500000E-01   2.500000E-01   2.500000E-01   2.500000E-01   2.500000E-01
        31         1          (50E15.6)        -1 #dz layer 4
   2.500000E-01   2.500000E-01   2.500000E-01   2.500000E-01   2.500000E-01   2.500000E-01   2.500000E-01   2.500000E-01   2.500000E-01   2.500000E-01   2.500000E-01   2.500000E-01   2.500000E-01   2.500000E-01   2.500000E-01   2.500000E-01   2.500000E-01   2.500000E-01   2.500000E-01   2.500000E-01   2.500000E-01   2.500000E-01   2.500000E-01   2.500000E-01   2.500000E-01   2.500000E-01   2.500000E-01   2.500000E-01   2.500000E-01   2.500000E-01   2.500000E-01   2.500000E-01   2.500000E-01   2.500000E-01   2.500000E-01   2.500000E-01   2.500000E-01   2.500000E-01   2.500000E-01   2.500000E-01   2.500000E-01   2.500000E-01   2.500000E-01   2.500000E-01   2.500000E-01   2.500000E-01   2.500000E-01   2.500000E-01   2.500000E-01   2.500000E-01
        31         1          (50E15.6)        -1 #dz layer 5
   2.500000E-01   2.500000E-01   2.500000E-01   2.500000E-01   2.500000E-01   2.500000E-01   2.500000E-01   2.500000E-01   2.500000E-01   2.500000E-01   2.500000E-01   2.500000E-01   2.500000E-01   2.500000E-01   2.500000E-01   2.500000E-01   2.500000E-01   2.500000E-01   2.500000E-01   2.500000E-01   2.500000E-01   2.500000E-01   2.500000E-01   2.500000E-01   2.500000E-01   2.500000E-01   2.500000E-01   2.500000E-01   2.500000E-01   2.500000E-01   2.500000E-01   2.500000E-01   2.500000E-01   2.500000E-01   2.500000E-01   2.500000E-01   2.500000E-01   2.500000E-01   2.500000E-01   2.500000E-01   2.500000E-01   2.500000E-01   2.500000E-01   2.500000E-01   2.500000E-01   2.500000E-01   2.500000E-01   2.500000E-01   2.500000E-01   2.500000E-01
        31         1          (50E15.6)        -1 #dz layer 6
   2.500000E-01   2.500000E-01   2.500000E-01   2.500000E-01   2.500000E-01   2.500000E-01   2.500000E-01   2.500000E-01   2.500000E-01   2.500000E-01   2.500000E-01   2.500000E-01   2.500000E-01   2.500000E-01   2.500000E-01   2.500000E-01   2.500000E-01   2.500000E-01   2.500000E-01   2.500000E-01   2.500000E-01   2.500000E-01   2.500000E-01   2.500000E-01   2.500000E-01   2.500000E-01   2.500000E-01   2.500000E-01   2.500000E-01   2.500000E-01   2.500000E-01   2.500000E-01   2.500000E-01   2.500000E-01   2.500000E-01   2.500000E-01   2.500000E-01   2.500000E-01   2.500000E-01   2.500000E-01   2.500000E-01   2.500000E-01   2.500000E-01   2.500000E-01   2.500000E-01   2.500000E-01   2.500000E-01   2.500000E-01   2.500000E-01   2.500000E-01
        31         1          (50E15.6)        -1 #dz layer 7
   2.500000E-01   2.500000E-01   2.500000E-01   2.500000E-01   2.500000E-01   2.500000E-01   2.500000E-01   2.500000E-01   2.500000E-01   2.500000E-01   2.500000E-01   2.500000E-01   2.500000E-01   2.500000E-01   2.500000E-01   2.500000E-01   2.500000E-01   2.500000E-01   2.500000E-01   2.500000E-01   2.500000E-01   2.500000E-01   2.500000E-01   2.500000E-01   2.500000E-01   2.500000E-01   2.500000E-01   2.500000E-01   2.500000E-01   2.500000E-01   2.500000E-01   2.500000E-01   2.500000E-01   2.500000E-01   2.500000E-01   2.500000E-01   2.500000E-01   2.500000E-01   2.500000E-01   2.500000E-01   2.500000E-01   2.500000E-01   2.500000E-01   2.500000E-01   2.500000E-01   2.500000E-01   2.500000E-01   2.500000E-01   2.500000E-01   2.500000E-01
        31         1          (50E15.6)        -1 #dz layer 8
   2.500000E-01   2.500000E-01   2.500000E-01   2.500000E-01   2.500000E-01   2.500000E-01   2.500000E-01   2.500000E-01   2.500000E-01   2.500000E-01   2.500000E-01   2.500000E-01   2.500000E-01   2.500000E-01   2.500000E-01   2.500000E-01   2.500000E-01   2.500000E-01   2.500000E-01   2.500000E-01   2.500000E-01   2.500000E-01   2.500000E-01   2.500000E-01   2.500000E-01   2.500000E-01   2.500000E-01   2.500000E-01   2.500000E-01   2.500000E-01   2.500000E-01   2.500000E-01   2.500000E-01   2.500000E-01   2.500000E-01   2.500000E-01   2.500000E-01   2.500000E-01   2.500000E-01   2.500000E-01   2.500000E-01   2.500000E-01   2.500000E-01   2.500000E-01   2.500000E-01   2.500000E-01   2.500000E-01   2.500000E-01   2.500000E-01   2.500000E-01
        31         1          (50E15.6)        -1 #dz layer 9
   2.500000E-01   2.500000E-01   2.500000E-01   2.500000E-01   2.500000E-01   2.500000E-01   2.500000E-01   2.500000E-01   2.500000E-01   2.500000E-01   2.500000E-01   2.500000E-01   2.500000E-01   2.500000E-01   2.500000E-01   2.500000E-01   2.500000E-01   2.500000E-01   2.500000E-01   2.500000E-01   2.500000E-01   2.500000E-01   2.500000E-01   2.500000E-01   2.500000E-01   2.500000E-01   2.500000E-01   2.500000E-01   2.500000E-01   2.500000E-01   2.500000E-01   2.500000E-01   2.500000E-01   2.500000E-01   2.500000E-01   2.500000E-01   2.500000E-01   2.500000E-01   2.500000E-01   2.500000E-01   2.500000E-01   2.500000E-01   2.500000E-01   2.500000E-01   2.500000E-01   2.500000E-01   2.500000E-01   2.500000E-01   2.500000E-01   2.500000E-01
        31         1          (50E15.6)        -1 #dz layer 10
   2.500000E-01   2.500000E-01   2.500000E-01   2.500000E-01   2.500000E-01   2.500000E-01   2.500000E-01   2.500000E-01   2.500000E-01   2.500000E-01   2.500000E-01   2.500000E-01   2.500000E-01   2.500000E-01   2.500000E-01   2.500000E-01   2.500000E-01   2.500000E-01   2.500000E-01   2.500000E-01   2.500000E-01   2.500000E-01   2.500000E-01   2.500000E-01   2.500000E-01   2.500000E-01   2.500000E-01   2.500000E-01   2.500000E-01   2.500000E-01   2.500000E-01   2.500000E-01   2.500000E-01   2.500000E-01   2.500000E-01   2.500000E-01   2.500000E-01   2.500000E-01   2.500000E-01   2.500000E-01   2.500000E-01   2.500000E-01   2.500000E-01   2.500000E-01   2.500000E-01   2.500000E-01   2.500000E-01   2.500000E-01   2.500000E-01   2.500000E-01
        31         1          (50E15.6)        -1 #dz layer 11
   2.500000E-01   2.500000E-01   2.500000E-01   2.500000E-01   2.500000E-01   2.500000E-01   2.500000E-01   2.500000E-01   2.500000E-01   2.500000E-01   2.500000E-01   2.500000E-01   2.500000E-01   2.500000E-01   2.500000E-01   2.500000E-01   2.500000E-01   2.500000E-01   2.500000E-01   2.500000E-01   2.500000E-01   2.500000E-01   2.500000E-01   2.500000E-01   2.500000E-01   2.500000E-01   2.500000E-01   2.500000E-01   2.500000E-01   2.500000E-01   2.500000E-01   2.500000E-01   2.500000E-01   2.500000E-01   2.500000E-01   2.500000E-01   2.500000E-01   2.500000E-01   2.500000E-01   2.500000E-01   2.500000E-01   2.500000E-01   2.500000E-01   2.500000E-01   2.500000E-01   2.500000E-01   2.500000E-01   2.500000E-01   2.500000E-01   2.500000E-01
        31         1          (50E15.6)        -1 #dz layer 12
   2.500000E-01   2.500000E-01   2.500000E-01   2.500000E-01   2.500000E-01   2.500000E-01   2.500000E-01   2.500000E-01   2.500000E-01   2.500000E-01   2.500000E-01   2.500000E-01   2.500000E-01   2.500000E-01   2.500000E-01   2.500000E-01   2.500000E-01   2.500000E-01   2.500000E-01   2.500000E-01   2.500000E-01   2.500000E-01   2.500000E-01   2.500000E-01   2.500000E-01   2.500000E-01   2.500000E-01   2.500000E-01   2.500000E-01   2.500000E-01   2.500000E-01   2.500000E-01   2.500000E-01   2.500000E-01   2.500000E-01   2.500000E-01   2.500000E-01   2.500000E-01   2.500000E-01   2.500000E-01   2.500000E-01   2.500000E-01   2.500000E-01   2.500000E-01   2.500000E-01   2.500000E-01   2.500000E-01   2.500000E-01   2.500000E-01   2.500000E-01
        31         1          (50E15.6)        -1 #dz layer 13
   2.500000E-01   2.500000E-01   2.500000E-01   2.500000E-01   2.500000E-01   2.500000E-01   2.500000E-01   2.500000E-01   2.500000E-01   2.500000E-01   2.500000E-01   2.500000E-01   2.500000E-01   2.500000E-01   2.500000E-01   2.500000E-01   2.500000E-01   2.500000E-01   2.500000E-01   2.500000E-01   2.500000E-01   2.500000E-01   2.500000E-01   2.500000E-01   2.500000E-01   2.500000E-01   2.500000E-01   2.500000E-01   2.500000E-01   2.500000E-01   2.500000E-01   2.500000E-01   2.500000E-01   2.500000E-01   2.500000E-01   2.500000E-01   2.500000E-01   2.500000E-01   2.500000E-01   2.500000E-01   2.500000E-01   2.500000E-01   2.500000E-01   2.500000E-01   2.500000E-01   2.500000E-01   2.500000E-01   2.500000E-01   2.500000E-01   2.500000E-01
        31         1          (50E15.6)        -1 #dz layer 14
   2.500000E-01   2.500000E-01   2.500000E-01   2.500000E-01   2.500000E-01   2.500000E-01   2.500000E-01   2.500000E-01   2.500000E-01   2.500000E-01   2.500000E-01   2.500000E-01   2.500000E-01   2.500000E-01   2.500000E-01   2.500000E-01   2.500000E-01   2.500000E-01   2.500000E-01   2.500000E-01   2.500000E-01   2.500000E-01   2.500000E-01   2.500000E-01   2.500000E-01   2.500000E-01   2.500000E-01   2.500000E-01   2.500000E-01   2.500000E-01   2.500000E-01   2.500000E-01   2.500000E-01   2.500000E-01   2.500000E-01   2.500000E-01   2.500000E-01   2.500000E-01   2.500000E-01   2.500000E-01   2.500000E-01   2.500000E-01   2.500000E-01   2.500000E-01   2.500000E-01   2.500000E-01   2.500000E-01   2.500000E-01   2.500000E-01   2.500000E-01
        31         1          (50E15.6)        -1 #dz layer 15
   2.500000E-01   2.500000E-01   2.500000E-01   2.500000E-01   2.500000E-01   2.500000E-01   2.500000E-01   2.500000E-01   2.500000E-01   2.500000E-01   2.500000E-01   2.500000E-01   2.500000E-01   2.500000E-01   2.500000E-01   2.500000E-01   2.500000E-01   2.500000E-01   2.500000E-01   2.500000E-01   2.500000E-01   2.500000E-01   2.500000E-01   2.500000E-01   2.500000E-01   2.500000E-01   2.500000E-01   2.500000E-01   2.500000E-01   2.500000E-01   2.500000E-01   2.500000E-01   2.500000E-01   2.500000E-01   2.500000E-01   2.500000E-01   2.500000E-01   2.500000E-01   2.500000E-01   2.500000E-01   2.500000E-01   2.500000E-01   2.500000E-01   2.500000E-01   2.500000E-01   2.500000E-01   2.500000E-01   2.500000E-01   2.500000E-01   2.500000E-01
        31         1          (50E15.6)        -1 #dz layer 16
   2.500000E-01   2.500000E-01   2.500000E-01   2.500000E-01   2.500000E-01   2.500000E-01   2.500000E-01   2.500000E-01   2.500000E-01   2.500000E-01   2.500000E-01   2.500000E-01   2.500000E-01   2.500000E-01   2.500000E-01   2.500000E-01   2.500000E-01   2.500000E-01   2.500000E-01   2.500000E-01   2.500000E-01   2.500000E-01   2.500000E-01   2.500000E-01   2.500000E-01   2.500000E-01   2.500000E-01   2.500000E-01   2.500000E-01   2.500000E-01   2.500000E-01   2.500000E-01   2.500000E-01   2.500000E-01   2.500000E-01   2.500000E-01   2.500000E-01   2.500000E-01   2.500000E-01   2.500000E-01   2.500000E-01   2.500000E-01   2.500000E-01   2.500000E-01   2.500000E-01   2.500000E-01   2.500000E-01   2.500000E-01   2.500000E-01   2.500000E-01
        31         1          (50E15.6)        -1 #dz layer 17
   2.500000E-01   2.500000E-01   2.500000E-01   2.500000E-01   2.500000E-01   2.500000E-01   2.500000E-01   2.500000E-01   2.500000E-01   2.500000E-01   2.500000E-01   2.500000E-01   2.500000E-01   2.500000E-01   2.500000E-01   2.500000E-01   2.500000E-01   2.500000E-01   2.500000E-01   2.500000E-01   2.500000E-01   2.500000E-01   2.500000E-01   2.500000E-01   2.500000E-01   2.500000E-01   2.500000E-01   2.500000E-01   2.500000E-01   2.500000E-01   2.500000E-01   2.500000E-01   2.500000E-01   2.500000E-01   2.500000E-01   2.500000E-01   2.500000E-01   2.500000E-01   2.500000E-01   2.500000E-01   2.500000E-01   2.500000E-01   2.500000E-01   2.500000E-01   2.500000E-01   2.500000E-01   2.500000E-01   2.500000E-01   2.500000E-01   2.500000E-01
        31         1          (50E15.6)        -1 #dz layer 18
   2.500000E-01   2.500000E-01   2.500000E-01   2.500000E-01   2.500000E-01   2.500000E-01   2.500000E-01   2.500000E-01   2.500000E-01   2.500000E-01   2.500000E-01   2.500000E-01   2.500000E-01   2.500000E-01   2.500000E-01   2.500000E-01   2.500000E-01   2.500000E-01   2.500000E-01   2.500000E-01   2.500000E-01   2.500000E-01   2.500000E-01   2.500000E-01   2.500000E-01   2.500000E-01   2.500000E-01   2.500000E-01   2.500000E-01   2.500000E-01   2.500000E-01   2.500000E-01   2.500000E-01   2.500000E-01   2.500000E-01   2.500000E-01   2.500000E-01   2.500000E-01   2.500000E-01   2.500000E-01   2.500000E-01   2.500000E-01   2.500000E-01   2.500000E-01   2.500000E-01   2.500000E-01   2.500000E-01   2.500000E-01   2.500000E-01   2.500000E-01
        31         1          (50E15.6)        -1 #dz layer 19
   2.500000E-01   2.500000E-01   2.500000E-01   2.500000E-01   2.500000E-01   2.500000E-01   2.500000E-01   2.500000E-01   2.500000E-01   2.500000E-01   2.500000E-01   2.500000E-01   2.500000E-01   2.500000E-01   2.500000E-01   2.500000E-01   2.500000E-01   2.500000E-01   2.500000E-01   2.500000E-01   2.500000E-01   2.500000E-01   2.500000E-01   2.500000E-01   2.500000E-01   2.500000E-01   2.500000E-01   2.500000E-01   2.500000E-01   2.500000E-01   2.500000E-01   2.500000E-01   2.500000E-01   2.500000E-01   2.500000E-01   2.500000E-01   2.500000E-01   2.500000E-01   2.500000E-01   2.500000E-01   2.500000E-01   2.500000E-01   2.500000E-01   2.500000E-01   2.500000E-01   2.500000E-01   2.500000E-01   2.500000E-01   2.500000E-01   2.500000E-01
        31         1          (50E15.6)        -1 #dz layer 20
   2.500000E-01   2.500000E-01   2.500000E-01   2.500000E-01   2.500000E-01   2.500000E-01   2.500000E-01   2.500000E-01   2.500000E-01   2.500000E-01   2.500000E-01   2.500000E-01   2.500000E-01   2.500000E-01   2.500000E-01   2.500000E-01   2.500000E-01   2.500000E-01   2.500000E-01   2.500000E-01   2.500000E-01   2.500000E-01   2.500000E-01   2.500000E-01   2.500000E-01   2.500000E-01   2.500000E-01   2.500000E-01   2.500000E-01   2.500000E-01   2.500000E-01   2.500000E-01   2.500000E-01   2.500000E-01   2.500000E-01   2.500000E-01   2.500000E-01   2.500000E-01   2.500000E-01   2.500000E-01   2.500000E-01   2.500000E-01   2.500000E-01   2.500000E-01   2.500000E-01   2.500000E-01   2.500000E-01   2.500000E-01   2.500000E-01   2.500000E-01
        31         1          (50E15.6)        -1 #dz layer 21
   2.500000E-01   2.500000E-01   2.500000E-01   2.500000E-01   2.500000E-01   2.500000E-01   2.500000E-01   2.500000E-01   2.500000E-01   2.500000E-01   2.500000E-01   2.500000E-01   2.500000E-01   2.500000E-01   2.500000E-01   2.500000E-01   2.500000E-01   2.500000E-01   2.500000E-01   2.500000E-01   2.500000E-01   2.500000E-01   2.500000E-01   2.500000E-01   2.500000E-01   2.500000E-01   2.500000E-01   2.500000E-01   2.500000E-01   2.500000E-01   2.500000E-01   2.500000E-01   2.500000E-01   2.500000E-01   2.500000E-01   2.500000E-01   2.500000E-01   2.500000E-01   2.500000E-01   2.500000E-01   2.500000E-01   2.500000E-01   2.500000E-01   2.500000E-01   2.500000E-01   2.500000E-01   2.500000E-01   2.500000E-01   2.500000E-01   2.500000E-01
        31         1          (50E15.6)        -1 #dz layer 22
   2.500000E-01   2.500000E-01   2.500000E-01   2.500000E-01   2.500000E-01   2.500000E-01   2.500000E-01   2.500000E-01   2.500000E-01   2.500000E-01   2.500000E-01   2.500000E-01   2.500000E-01   2.500000E-01   2.500000E-01   2.500000E-01   2.500000E-01   2.500000E-01   2.500000E-01   2.500000E-01   2.500000E-01   2.500000E-01   2.500000E-01   2.500000E-01   2.500000E-01   2.500000E-01   2.500000E-01   2.500000E-01   2.500000E-01   2.500000E-01   2.500000E-01   2.500000E-01   2.500000E-01   2.500000E-01   2.500000E-01   2.500000E-01   2.500000E-01   2.500000E-01   2.500000E-01   2.500000E-01   2.500000E-01   2.500000E-01   2.500000E-01   2.500000E-01   2.500000E-01   2.500000E-01   2.500000E-01   2.500000E-01   2.500000E-01   2.500000E-01
        31         1          (50E15.6)        -1 #dz layer 23
   2.500000E-01   2.500000E-01   2.500000E-01   2.500000E-01   2.500000E-01   2.500000E-01   2.500000E-01   2.500000E-01   2.500000E-01   2.500000E-01   2.500000E-01   2.500000E-01   2.500000E-01   2.500000E-01   2.500000E-01   2.500000E-01   2.500000E-01   2.500000E-01   2.500000E-01   2.500000E-01   2.500000E-01   2.500000E-01   2.500000E-01   2.500000E-01   2.500000E-01   2.500000E-01   2.500000E-01   2.500000E-01   2.500000E-01   2.500000E-01   2.500000E-01   2.500000E-01   2.500000E-01   2.500000E-01   2.500000E-01   2.500000E-01   2.500000E-01   2.500000E-01   2.500000E-01   2.500000E-01   2.500000E-01   2.500000E-01   2.500000E-01   2.500000E-01   2.500000E-01   2.500000E-01   2.500000E-01   2.500000E-01   2.500000E-01   2.500000E-01
        31         1          (50E15.6)        -1 #dz layer 24
   2.500000E-01   2.500000E-01   2.500000E-01   2.500000E-01   2.500000E-01   2.500000E-01   2.500000E-01   2.500000E-01   2.500000E-01   2.500000E-01   2.500000E-01   2.500000E-01   2.500000E-01   2.500000E-01   2.500000E-01   2.500000E-01   2.500000E-01   2.500000E-01   2.500000E-01   2.500000E-01   2.500000E-01   2.500000E-01   2.500000E-01   2.500000E-01   2.500000E-01   2.500000E-01   2.500000E-01   2.500000E-01   2.500000E-01   2.500000E-01   2.500000E-01   2.500000E-01   2.500000E-01   2.500000E-01   2.500000E-01   2.500000E-01   2.500000E-01   2.500000E-01   2.500000E-01   2.500000E-01   2.500000E-01   2.500000E-01   2.500000E-01   2.500000E-01   2.500000E-01   2.500000E-01   2.500000E-01   2.500000E-01   2.500000E-01   2.500000E-01
        31         1          (50E15.6)        -1 #dz layer 25
   2.500000E-01   2.500000E-01   2.500000E-01   2.500000E-01   2.500000E-01   2.500000E-01   2.500000E-01   2.500000E-01   2.500000E-01   2.500000E-01   2.500000E-01   2.500000E-01   2.500000E-01   2.500000E-01   2.500000E-01   2.500000E-01   2.500000E-01   2.500000E-01   2.500000E-01   2.500000E-01   2.500000E-01   2.500000E-01   2.500000E-01   2.500000E-01   2.500000E-01   2.500000E-01   2.500000E-01   2.500000E-01   2.500000E-01   2.500000E-01   2.500000E-01   2.500000E-01   2.500000E-01   2.500000E-01   2.500000E-01   2.500000E-01   2.500000E-01   2.500000E-01   2.500000E-01   2.500000E-01   2.500000E-01   2.500000E-01   2.500000E-01   2.500000E-01   2.500000E-01   2.500000E-01   2.500000E-01   2.500000E-01   2.500000E-01   2.500000E-01
        31         1          (50E15.6)        -1 #dz layer 26
   2.500000E-01   2.500000E-01   2.500000E-01   2.500000E-01   2.500000E-01   2.500000E-01   2.500000E-01   2.500000E-01   2.500000E-01   2.500000E-01   2.500000E-01   2.500000E-01   2.500000E-01   2.500000E-01   2.500000E-01   2.500000E-01   2.500000E-01   2.500000E-01   2.500000E-01   2.500000E-01   2.500000E-01   2.500000E-01   2.500000E-01   2.500000E-01   2.500000E-01   2.500000E-01   2.500000E-01   2.500000E-01   2.500000E-01   2.500000E-01   2.500000E-01   2.500000E-01   2.500000E-01   2.500000E-01   2.500000E-01   2.500000E-01   2.500000E-01   2.500000E-01   2.500000E-01   2.500000E-01   2.500000E-01   2.500000E-01   2.500000E-01   2.500000E-01   2.500000E-01   2.500000E-01   2.500000E-01   2.500000E-01   2.500000E-01   2.500000E-01
        31         1          (50E15.6)        -1 #dz layer 27
   2.500000E-01   2.500000E-01   2.500000E-01   2.500000E-01   2.500000E-01   2.500000E-01   2.500000E-01   2.500000E-01   2.500000E-01   2.500000E-01   2.500000E-01   2.500000E-01   2.500000E-01   2.500000E-01   2.500000E-01   2.500000E-01   2.500000E-01   2.500000E-01   2.500000E-01   2.500000E-01   2.500000E-01   2.500000E-01   2.500000E-01   2.500000E-01   2.500000E-01   2.500000E-01   2.500000E-01   2.500000E-01   2.500000E-01   2.500000E-01   2.500000E-01   2.500000E-01   2.500000E-01   2.500000E-01   2.500000E-01   2.500000E-01   2.500000E-01   2.500000E-01   2.500000E-01   2.500000E-01   2.500000E-01   2.500000E-01   2.500000E-01   2.500000E-01   2.500000E-01   2.500000E-01   2.500000E-01   2.500000E-01   2.500000E-01   2.500000E-01
         0      0.35                           -1 #prsity layer 1
         0      0.35                           -1 #prsity layer 2
         0      0.35                           -1 #prsity layer 3
         0      0.35                           -1 #prsity layer 4
         0      0.35                           -1 #prsity layer 5
         0      0.35                           -1 #prsity layer 6
         0      0.35                           -1 #prsity layer 7
         0      0.35                           -1 #prsity layer 8
         0      0.35                           -1 #prsity layer 9
         0      0.35                           -1 #prsity layer 10
         0      0.35                           -1 #prsity layer 11
         0      0.35                           -1 #prsity layer 12
         0      0.35                           -1 #prsity layer 13
         0      0.35                           -1 #prsity layer 14
         0      0.35                           -1 #prsity layer 15
         0      0.35                           -1 #prsity layer 16
         0      0.35                           -1 #prsity layer 17
         0      0.35                           -1 #prsity layer 18
         0      0.35                           -1 #prsity layer 19
         0      0.35                           -1 #prsity layer 20
         0      0.35                           -1 #prsity layer 21
         0      0.35                           -1 #prsity layer 22
         0      0.35                           -1 #prsity layer 23
         0      0.35                           -1 #prsity layer 24
         0      0.35                           -1 #prsity layer 25
         0      0.35                           -1 #prsity layer 26
         0      0.35                           -1 #prsity layer 27
         0         1                           -1 #icbund layer 1
         0         1                           -1 #icbund layer 2
         0         1                           -1 #icbund layer 3
         0         1                           -1 #icbund layer 4
         0         1                           -1 #icbund layer 5
         0         1                           -1 #icbund layer 6
         0         1                           -1 #icbund layer 7
         0         1                           -1 #icbund layer 8
         0         1                           -1 #icbund layer 9
         0         1                           -1 #icbund layer 10
         0         1                           -1 #icbund layer 11
         0         1                           -1 #icbund layer 12
         0         1                           -1 #icbund layer 13
         0         1                           -1 #icbund layer 14
         0         1                           -1 #icbund layer 15
         0         1                           -1 #icbund layer 16
         0         1                           -1 #icbund layer 17
         0         1                           -1 #icbund layer 18
         0         1                           -1 #icbund layer 19
         0         1                           -1 #icbund layer 20
         0         1                           -1 #icbund layer 21
         0         1                           -1 #icbund layer 22
         0         1                           -1 #icbund layer 23
         0         1                           -1 #icbund layer 24
         0         1                           -1 #icbund layer 25
         0         1                           -1 #icbund layer 26
         0         1                           -1 #icbund layer 27
         0         0                           -1 #sconc1 layer 1
         0         0                           -1 #sconc1 layer 2
         0         0                           -1 #sconc1 layer 3
         0         0                           -1 #sconc1 layer 4
         0         0                           -1 #sconc1 layer 5
         0         0                           -1 #sconc1 layer 6
         0         0                           -1 #sconc1 layer 7
         0         0                           -1 #sconc1 layer 8
         0         0                           -1 #sconc1 layer 9
         0         0                           -1 #sconc1 layer 10
         0         0                           -1 #sconc1 layer 11
         0         0                           -1 #sconc1 layer 12
         0         0                           -1 #sconc1 layer 13
         0         0                           -1 #sconc1 layer 14
         0         0                           -1 #sconc1 layer 15
         0         0                           -1 #sconc1 layer 16
         0         0                           -1 #sconc1 layer 17
         0         0                           -1 #sconc1 layer 18
         0         0                           -1 #sconc1 layer 19
         0         0                           -1 #sconc1 layer 20
         0         0                           -1 #sconc1 layer 21
         0         0                           -1 #sconc1 layer 22
         0         0                           -1 #sconc1 layer 23
         0         0                           -1 #sconc1 layer 24
         0         0                           -1 #sconc1 layer 25
         0         0                           -1 #sconc1 layer 26
         0         0                           -1 #sconc1 layer 27
     1E+30  1.00E-02
         0         0         0         0         T
        20
3.6500E+027.3000E+021.0950E+031.4600E+031.8250E+032.1900E+032.5550E+032.9200E+03
3.2850E+033.6500E+034.0150E+034.3800E+034.7450E+035.1100E+035.4750E+035.8400E+03
6.2050E+036.5700E+036.9350E+037.3000E+03
         0         1
         T         1
      1825       365         1
         5     50000         1         0
      5475      1095         1
         5     50000         1         0
