# DIS package for MODFLOW-2005 generated by Flopy 3.3.5
         1        18        14         2         1         2
  0
CONSTANT    1.000000E+02                           #delr                          
CONSTANT    1.000000E+02                           #delc                          
CONSTANT    0.000000E+00                           #model_top                     
CONSTANT   -1.000000E+01                           #botm layer 1                  
31536000.000000             1  1.000000  TR 
31536000.000000             1  1.000000  TR 
