# Name file for MT3DMS, generated by Flopy version 3.3.5.
LIST              16  p09-mt.list
FTL               10  mt3d_link.ftl 
BTN               31  p09-mt.btn
ADV               32  p09-mt.adv
DSP               33  p09-mt.dsp
SSM               34  p09-mt.ssm
GCG               35  p09-mt.gcg
