# LPF package for MODFLOW-2005 generated by Flopy 3.3.5
         0    -1E+30         0  
         0
         0
   1.000000E+00
         0
         0
INTERNAL               1  (14E15.6) -1 #hk layer 1                    
   1.474000E-04   1.474000E-04   1.474000E-04   1.474000E-04   1.474000E-04   1.474000E-04   1.474000E-04   1.474000E-04   1.474000E-04   1.474000E-04   1.474000E-04   1.474000E-04   1.474000E-04   1.474000E-04
   1.474000E-04   1.474000E-04   1.474000E-04   1.474000E-04   1.474000E-04   1.474000E-04   1.474000E-04   1.474000E-04   1.474000E-04   1.474000E-04   1.474000E-04   1.474000E-04   1.474000E-04   1.474000E-04
   1.474000E-04   1.474000E-04   1.474000E-04   1.474000E-04   1.474000E-04   1.474000E-04   1.474000E-04   1.474000E-04   1.474000E-04   1.474000E-04   1.474000E-04   1.474000E-04   1.474000E-04   1.474000E-04
   1.474000E-04   1.474000E-04   1.474000E-04   1.474000E-04   1.474000E-04   1.474000E-04   1.474000E-04   1.474000E-04   1.474000E-04   1.474000E-04   1.474000E-04   1.474000E-04   1.474000E-04   1.474000E-04
   1.474000E-04   1.474000E-04   1.474000E-04   1.474000E-04   1.474000E-04   1.474000E-04   1.474000E-04   1.474000E-04   1.474000E-04   1.474000E-04   1.474000E-04   1.474000E-04   1.474000E-04   1.474000E-04
   1.474000E-04   1.474000E-07   1.474000E-07   1.474000E-07   1.474000E-07   1.474000E-07   1.474000E-07   1.474000E-07   1.474000E-04   1.474000E-04   1.474000E-04   1.474000E-04   1.474000E-04   1.474000E-04
   1.474000E-04   1.474000E-07   1.474000E-07   1.474000E-07   1.474000E-07   1.474000E-07   1.474000E-07   1.474000E-07   1.474000E-04   1.474000E-04   1.474000E-04   1.474000E-04   1.474000E-04   1.474000E-04
   1.474000E-04   1.474000E-07   1.474000E-07   1.474000E-07   1.474000E-07   1.474000E-07   1.474000E-07   1.474000E-07   1.474000E-04   1.474000E-04   1.474000E-04   1.474000E-04   1.474000E-04   1.474000E-04
   1.474000E-04   1.474000E-04   1.474000E-04   1.474000E-04   1.474000E-04   1.474000E-04   1.474000E-04   1.474000E-04   1.474000E-04   1.474000E-04   1.474000E-04   1.474000E-04   1.474000E-04   1.474000E-04
   1.474000E-04   1.474000E-04   1.474000E-04   1.474000E-04   1.474000E-04   1.474000E-04   1.474000E-04   1.474000E-04   1.474000E-04   1.474000E-04   1.474000E-04   1.474000E-04   1.474000E-04   1.474000E-04
   1.474000E-04   1.474000E-04   1.474000E-04   1.474000E-04   1.474000E-04   1.474000E-04   1.474000E-04   1.474000E-04   1.474000E-04   1.474000E-04   1.474000E-04   1.474000E-04   1.474000E-04   1.474000E-04
   1.474000E-04   1.474000E-04   1.474000E-04   1.474000E-04   1.474000E-04   1.474000E-04   1.474000E-04   1.474000E-04   1.474000E-04   1.474000E-04   1.474000E-04   1.474000E-04   1.474000E-04   1.474000E-04
   1.474000E-04   1.474000E-04   1.474000E-04   1.474000E-04   1.474000E-04   1.474000E-04   1.474000E-04   1.474000E-04   1.474000E-04   1.474000E-04   1.474000E-04   1.474000E-04   1.474000E-04   1.474000E-04
   1.474000E-04   1.474000E-04   1.474000E-04   1.474000E-04   1.474000E-04   1.474000E-04   1.474000E-04   1.474000E-04   1.474000E-04   1.474000E-04   1.474000E-04   1.474000E-04   1.474000E-04   1.474000E-04
   1.474000E-04   1.474000E-04   1.474000E-04   1.474000E-04   1.474000E-04   1.474000E-04   1.474000E-04   1.474000E-04   1.474000E-04   1.474000E-04   1.474000E-04   1.474000E-04   1.474000E-04   1.474000E-04
   1.474000E-04   1.474000E-04   1.474000E-04   1.474000E-04   1.474000E-04   1.474000E-04   1.474000E-04   1.474000E-04   1.474000E-04   1.474000E-04   1.474000E-04   1.474000E-04   1.474000E-04   1.474000E-04
   1.474000E-04   1.474000E-04   1.474000E-04   1.474000E-04   1.474000E-04   1.474000E-04   1.474000E-04   1.474000E-04   1.474000E-04   1.474000E-04   1.474000E-04   1.474000E-04   1.474000E-04   1.474000E-04
   1.474000E-04   1.474000E-04   1.474000E-04   1.474000E-04   1.474000E-04   1.474000E-04   1.474000E-04   1.474000E-04   1.474000E-04   1.474000E-04   1.474000E-04   1.474000E-04   1.474000E-04   1.474000E-04
CONSTANT    1.000000E+00                           #vka1                          
CONSTANT    1.000000E-05                           #ss layer 1                    
