# WEL package for MODFLOW-2005 generated by Flopy 3.3.5
         2         0 
         2         0 # stress period 1
         1         4         7           0.001
         1        11         7         -0.0189
        -1         0 # stress period 2
