# Name file for MODFLOW-2005, generated by Flopy version 3.3.5.
#xll:0.0; yll:0.0; rotation:0.0; units:meters; lenuni:2; start_datetime:1-1-1970
LIST               2  p09-mf.list
DIS               11  p09-mf.dis
BAS6              13  p09-mf.bas
LPF               15  p09-mf.lpf
WEL               20  p09-mf.wel
PCG               27  p09-mf.pcg
LMT6              30  p09-mf.lmt6
