# File generated by Flopy version 3.7.0 on 01/05/2025 at 08:01:09.
BEGIN options
  MEMORY_PRINT_OPTION  all
END options

BEGIN timing
  TDIS6  rivercond.tdis
END timing

BEGIN models
  gwf6  rivercond.nam  rivercond
END models

BEGIN exchanges
END exchanges

BEGIN solutiongroup  1
  ims6  rivercond.ims  rivercond
END solutiongroup  1

