# File generated by Flopy version 3.7.0 on 01/05/2025 at 08:01:09.
BEGIN options
  PRINT_FLOWS
END options

BEGIN dimensions
  MAXBOUND  1
END dimensions

BEGIN period  1
  2 1 1 3.20000000E+02
END period  1

BEGIN period  2
  2 1 1 3.20078537E+02
END period  2

BEGIN period  3
  2 1 1 3.20157054E+02
END period  3

BEGIN period  4
  2 1 1 3.20235532E+02
END period  4

BEGIN period  5
  2 1 1 3.20313953E+02
END period  5

BEGIN period  6
  2 1 1 3.20392295E+02
END period  6

BEGIN period  7
  2 1 1 3.20470542E+02
END period  7

BEGIN period  8
  2 1 1 3.20548672E+02
END period  8

BEGIN period  9
  2 1 1 3.20626666E+02
END period  9

BEGIN period  10
  2 1 1 3.20704506E+02
END period  10

BEGIN period  11
  2 1 1 3.20782172E+02
END period  11

BEGIN period  12
  2 1 1 3.20859646E+02
END period  12

BEGIN period  13
  2 1 1 3.20936907E+02
END period  13

BEGIN period  14
  2 1 1 3.21013936E+02
END period  14

BEGIN period  15
  2 1 1 3.21090716E+02
END period  15

BEGIN period  16
  2 1 1 3.21167227E+02
END period  16

BEGIN period  17
  2 1 1 3.21243449E+02
END period  17

BEGIN period  18
  2 1 1 3.21319365E+02
END period  18

BEGIN period  19
  2 1 1 3.21394956E+02
END period  19

BEGIN period  20
  2 1 1 3.21470202E+02
END period  20

BEGIN period  21
  2 1 1 3.21545085E+02
END period  21

BEGIN period  22
  2 1 1 3.21619587E+02
END period  22

BEGIN period  23
  2 1 1 3.21693690E+02
END period  23

BEGIN period  24
  2 1 1 3.21767374E+02
END period  24

BEGIN period  25
  2 1 1 3.21840623E+02
END period  25

BEGIN period  26
  2 1 1 3.21913417E+02
END period  26

BEGIN period  27
  2 1 1 3.21985739E+02
END period  27

BEGIN period  28
  2 1 1 3.22057572E+02
END period  28

BEGIN period  29
  2 1 1 3.22128896E+02
END period  29

BEGIN period  30
  2 1 1 3.22199696E+02
END period  30

BEGIN period  31
  2 1 1 3.22269952E+02
END period  31

BEGIN period  32
  2 1 1 3.22339649E+02
END period  32

BEGIN period  33
  2 1 1 3.22408768E+02
END period  33

BEGIN period  34
  2 1 1 3.22477293E+02
END period  34

BEGIN period  35
  2 1 1 3.22545207E+02
END period  35

BEGIN period  36
  2 1 1 3.22612493E+02
END period  36

BEGIN period  37
  2 1 1 3.22679134E+02
END period  37

BEGIN period  38
  2 1 1 3.22745114E+02
END period  38

BEGIN period  39
  2 1 1 3.22810417E+02
END period  39

BEGIN period  40
  2 1 1 3.22875026E+02
END period  40

BEGIN period  41
  2 1 1 3.22938926E+02
END period  41

BEGIN period  42
  2 1 1 3.23002101E+02
END period  42

BEGIN period  43
  2 1 1 3.23064535E+02
END period  43

BEGIN period  44
  2 1 1 3.23126213E+02
END period  44

BEGIN period  45
  2 1 1 3.23187120E+02
END period  45

BEGIN period  46
  2 1 1 3.23247240E+02
END period  46

BEGIN period  47
  2 1 1 3.23306559E+02
END period  47

BEGIN period  48
  2 1 1 3.23365063E+02
END period  48

BEGIN period  49
  2 1 1 3.23422736E+02
END period  49

BEGIN period  50
  2 1 1 3.23479564E+02
END period  50

BEGIN period  51
  2 1 1 3.23535534E+02
END period  51

BEGIN period  52
  2 1 1 3.23590631E+02
END period  52

BEGIN period  53
  2 1 1 3.23644843E+02
END period  53

BEGIN period  54
  2 1 1 3.23698155E+02
END period  54

BEGIN period  55
  2 1 1 3.23750555E+02
END period  55

BEGIN period  56
  2 1 1 3.23802030E+02
END period  56

BEGIN period  57
  2 1 1 3.23852566E+02
END period  57

BEGIN period  58
  2 1 1 3.23902152E+02
END period  58

BEGIN period  59
  2 1 1 3.23950775E+02
END period  59

BEGIN period  60
  2 1 1 3.23998423E+02
END period  60

BEGIN period  61
  2 1 1 3.24045085E+02
END period  61

BEGIN period  62
  2 1 1 3.24090749E+02
END period  62

BEGIN period  63
  2 1 1 3.24135403E+02
END period  63

BEGIN period  64
  2 1 1 3.24179037E+02
END period  64

BEGIN period  65
  2 1 1 3.24221640E+02
END period  65

BEGIN period  66
  2 1 1 3.24263201E+02
END period  66

BEGIN period  67
  2 1 1 3.24303710E+02
END period  67

BEGIN period  68
  2 1 1 3.24343158E+02
END period  68

BEGIN period  69
  2 1 1 3.24381533E+02
END period  69

BEGIN period  70
  2 1 1 3.24418828E+02
END period  70

BEGIN period  71
  2 1 1 3.24455033E+02
END period  71

BEGIN period  72
  2 1 1 3.24490138E+02
END period  72

BEGIN period  73
  2 1 1 3.24524135E+02
END period  73

BEGIN period  74
  2 1 1 3.24557016E+02
END period  74

BEGIN period  75
  2 1 1 3.24588773E+02
END period  75

BEGIN period  76
  2 1 1 3.24619398E+02
END period  76

BEGIN period  77
  2 1 1 3.24648882E+02
END period  77

BEGIN period  78
  2 1 1 3.24677220E+02
END period  78

BEGIN period  79
  2 1 1 3.24704404E+02
END period  79

BEGIN period  80
  2 1 1 3.24730427E+02
END period  80

BEGIN period  81
  2 1 1 3.24755283E+02
END period  81

BEGIN period  82
  2 1 1 3.24778965E+02
END period  82

BEGIN period  83
  2 1 1 3.24801468E+02
END period  83

BEGIN period  84
  2 1 1 3.24822787E+02
END period  84

BEGIN period  85
  2 1 1 3.24842916E+02
END period  85

BEGIN period  86
  2 1 1 3.24861850E+02
END period  86

BEGIN period  87
  2 1 1 3.24879584E+02
END period  87

BEGIN period  88
  2 1 1 3.24896114E+02
END period  88

BEGIN period  89
  2 1 1 3.24911436E+02
END period  89

BEGIN period  90
  2 1 1 3.24925547E+02
END period  90

BEGIN period  91
  2 1 1 3.24938442E+02
END period  91

BEGIN period  92
  2 1 1 3.24950118E+02
END period  92

BEGIN period  93
  2 1 1 3.24960574E+02
END period  93

BEGIN period  94
  2 1 1 3.24969805E+02
END period  94

BEGIN period  95
  2 1 1 3.24977810E+02
END period  95

BEGIN period  96
  2 1 1 3.24984587E+02
END period  96

BEGIN period  97
  2 1 1 3.24990134E+02
END period  97

BEGIN period  98
  2 1 1 3.24994449E+02
END period  98

BEGIN period  99
  2 1 1 3.24997533E+02
END period  99

BEGIN period  100
  2 1 1 3.24999383E+02
END period  100

BEGIN period  101
  2 1 1 3.25000000E+02
END period  101

BEGIN period  102
  2 1 1 3.24999383E+02
END period  102

BEGIN period  103
  2 1 1 3.24997533E+02
END period  103

BEGIN period  104
  2 1 1 3.24994449E+02
END period  104

BEGIN period  105
  2 1 1 3.24990134E+02
END period  105

BEGIN period  106
  2 1 1 3.24984587E+02
END period  106

BEGIN period  107
  2 1 1 3.24977810E+02
END period  107

BEGIN period  108
  2 1 1 3.24969805E+02
END period  108

BEGIN period  109
  2 1 1 3.24960574E+02
END period  109

BEGIN period  110
  2 1 1 3.24950118E+02
END period  110

BEGIN period  111
  2 1 1 3.24938442E+02
END period  111

BEGIN period  112
  2 1 1 3.24925547E+02
END period  112

BEGIN period  113
  2 1 1 3.24911436E+02
END period  113

BEGIN period  114
  2 1 1 3.24896114E+02
END period  114

BEGIN period  115
  2 1 1 3.24879584E+02
END period  115

BEGIN period  116
  2 1 1 3.24861850E+02
END period  116

BEGIN period  117
  2 1 1 3.24842916E+02
END period  117

BEGIN period  118
  2 1 1 3.24822787E+02
END period  118

BEGIN period  119
  2 1 1 3.24801468E+02
END period  119

BEGIN period  120
  2 1 1 3.24778965E+02
END period  120

BEGIN period  121
  2 1 1 3.24755283E+02
END period  121

BEGIN period  122
  2 1 1 3.24730427E+02
END period  122

BEGIN period  123
  2 1 1 3.24704404E+02
END period  123

BEGIN period  124
  2 1 1 3.24677220E+02
END period  124

BEGIN period  125
  2 1 1 3.24648882E+02
END period  125

BEGIN period  126
  2 1 1 3.24619398E+02
END period  126

BEGIN period  127
  2 1 1 3.24588773E+02
END period  127

BEGIN period  128
  2 1 1 3.24557016E+02
END period  128

BEGIN period  129
  2 1 1 3.24524135E+02
END period  129

BEGIN period  130
  2 1 1 3.24490138E+02
END period  130

BEGIN period  131
  2 1 1 3.24455033E+02
END period  131

BEGIN period  132
  2 1 1 3.24418828E+02
END period  132

BEGIN period  133
  2 1 1 3.24381533E+02
END period  133

BEGIN period  134
  2 1 1 3.24343158E+02
END period  134

BEGIN period  135
  2 1 1 3.24303710E+02
END period  135

BEGIN period  136
  2 1 1 3.24263201E+02
END period  136

BEGIN period  137
  2 1 1 3.24221640E+02
END period  137

BEGIN period  138
  2 1 1 3.24179037E+02
END period  138

BEGIN period  139
  2 1 1 3.24135403E+02
END period  139

BEGIN period  140
  2 1 1 3.24090749E+02
END period  140

BEGIN period  141
  2 1 1 3.24045085E+02
END period  141

BEGIN period  142
  2 1 1 3.23998423E+02
END period  142

BEGIN period  143
  2 1 1 3.23950775E+02
END period  143

BEGIN period  144
  2 1 1 3.23902152E+02
END period  144

BEGIN period  145
  2 1 1 3.23852566E+02
END period  145

BEGIN period  146
  2 1 1 3.23802030E+02
END period  146

BEGIN period  147
  2 1 1 3.23750555E+02
END period  147

BEGIN period  148
  2 1 1 3.23698155E+02
END period  148

BEGIN period  149
  2 1 1 3.23644843E+02
END period  149

BEGIN period  150
  2 1 1 3.23590631E+02
END period  150

BEGIN period  151
  2 1 1 3.23535534E+02
END period  151

BEGIN period  152
  2 1 1 3.23479564E+02
END period  152

BEGIN period  153
  2 1 1 3.23422736E+02
END period  153

BEGIN period  154
  2 1 1 3.23365063E+02
END period  154

BEGIN period  155
  2 1 1 3.23306559E+02
END period  155

BEGIN period  156
  2 1 1 3.23247240E+02
END period  156

BEGIN period  157
  2 1 1 3.23187120E+02
END period  157

BEGIN period  158
  2 1 1 3.23126213E+02
END period  158

BEGIN period  159
  2 1 1 3.23064535E+02
END period  159

BEGIN period  160
  2 1 1 3.23002101E+02
END period  160

BEGIN period  161
  2 1 1 3.22938926E+02
END period  161

BEGIN period  162
  2 1 1 3.22875026E+02
END period  162

BEGIN period  163
  2 1 1 3.22810417E+02
END period  163

BEGIN period  164
  2 1 1 3.22745114E+02
END period  164

BEGIN period  165
  2 1 1 3.22679134E+02
END period  165

BEGIN period  166
  2 1 1 3.22612493E+02
END period  166

BEGIN period  167
  2 1 1 3.22545207E+02
END period  167

BEGIN period  168
  2 1 1 3.22477293E+02
END period  168

BEGIN period  169
  2 1 1 3.22408768E+02
END period  169

BEGIN period  170
  2 1 1 3.22339649E+02
END period  170

BEGIN period  171
  2 1 1 3.22269952E+02
END period  171

BEGIN period  172
  2 1 1 3.22199696E+02
END period  172

BEGIN period  173
  2 1 1 3.22128896E+02
END period  173

BEGIN period  174
  2 1 1 3.22057572E+02
END period  174

BEGIN period  175
  2 1 1 3.21985739E+02
END period  175

BEGIN period  176
  2 1 1 3.21913417E+02
END period  176

BEGIN period  177
  2 1 1 3.21840623E+02
END period  177

BEGIN period  178
  2 1 1 3.21767374E+02
END period  178

BEGIN period  179
  2 1 1 3.21693690E+02
END period  179

BEGIN period  180
  2 1 1 3.21619587E+02
END period  180

BEGIN period  181
  2 1 1 3.21545085E+02
END period  181

BEGIN period  182
  2 1 1 3.21470202E+02
END period  182

BEGIN period  183
  2 1 1 3.21394956E+02
END period  183

BEGIN period  184
  2 1 1 3.21319365E+02
END period  184

BEGIN period  185
  2 1 1 3.21243449E+02
END period  185

BEGIN period  186
  2 1 1 3.21167227E+02
END period  186

BEGIN period  187
  2 1 1 3.21090716E+02
END period  187

BEGIN period  188
  2 1 1 3.21013936E+02
END period  188

BEGIN period  189
  2 1 1 3.20936907E+02
END period  189

BEGIN period  190
  2 1 1 3.20859646E+02
END period  190

BEGIN period  191
  2 1 1 3.20782172E+02
END period  191

BEGIN period  192
  2 1 1 3.20704506E+02
END period  192

BEGIN period  193
  2 1 1 3.20626666E+02
END period  193

BEGIN period  194
  2 1 1 3.20548672E+02
END period  194

BEGIN period  195
  2 1 1 3.20470542E+02
END period  195

BEGIN period  196
  2 1 1 3.20392295E+02
END period  196

BEGIN period  197
  2 1 1 3.20313953E+02
END period  197

BEGIN period  198
  2 1 1 3.20235532E+02
END period  198

BEGIN period  199
  2 1 1 3.20157054E+02
END period  199

BEGIN period  200
  2 1 1 3.20078537E+02
END period  200

BEGIN period  201
  2 1 1 3.20000000E+02
END period  201

BEGIN period  202
  2 1 1 3.19921463E+02
END period  202

BEGIN period  203
  2 1 1 3.19842946E+02
END period  203

BEGIN period  204
  2 1 1 3.19764468E+02
END period  204

BEGIN period  205
  2 1 1 3.19686047E+02
END period  205

BEGIN period  206
  2 1 1 3.19607705E+02
END period  206

BEGIN period  207
  2 1 1 3.19529458E+02
END period  207

BEGIN period  208
  2 1 1 3.19451328E+02
END period  208

BEGIN period  209
  2 1 1 3.19373334E+02
END period  209

BEGIN period  210
  2 1 1 3.19295494E+02
END period  210

BEGIN period  211
  2 1 1 3.19217828E+02
END period  211

BEGIN period  212
  2 1 1 3.19140354E+02
END period  212

BEGIN period  213
  2 1 1 3.19063093E+02
END period  213

BEGIN period  214
  2 1 1 3.18986064E+02
END period  214

BEGIN period  215
  2 1 1 3.18909284E+02
END period  215

BEGIN period  216
  2 1 1 3.18832773E+02
END period  216

BEGIN period  217
  2 1 1 3.18756551E+02
END period  217

BEGIN period  218
  2 1 1 3.18680635E+02
END period  218

BEGIN period  219
  2 1 1 3.18605044E+02
END period  219

BEGIN period  220
  2 1 1 3.18529798E+02
END period  220

BEGIN period  221
  2 1 1 3.18454915E+02
END period  221

BEGIN period  222
  2 1 1 3.18380413E+02
END period  222

BEGIN period  223
  2 1 1 3.18306310E+02
END period  223

BEGIN period  224
  2 1 1 3.18232626E+02
END period  224

BEGIN period  225
  2 1 1 3.18159377E+02
END period  225

BEGIN period  226
  2 1 1 3.18086583E+02
END period  226

BEGIN period  227
  2 1 1 3.18014261E+02
END period  227

BEGIN period  228
  2 1 1 3.17942428E+02
END period  228

BEGIN period  229
  2 1 1 3.17871104E+02
END period  229

BEGIN period  230
  2 1 1 3.17800304E+02
END period  230

BEGIN period  231
  2 1 1 3.17730048E+02
END period  231

BEGIN period  232
  2 1 1 3.17660351E+02
END period  232

BEGIN period  233
  2 1 1 3.17591232E+02
END period  233

BEGIN period  234
  2 1 1 3.17522707E+02
END period  234

BEGIN period  235
  2 1 1 3.17454793E+02
END period  235

BEGIN period  236
  2 1 1 3.17387507E+02
END period  236

BEGIN period  237
  2 1 1 3.17320866E+02
END period  237

BEGIN period  238
  2 1 1 3.17254886E+02
END period  238

BEGIN period  239
  2 1 1 3.17189583E+02
END period  239

BEGIN period  240
  2 1 1 3.17124974E+02
END period  240

BEGIN period  241
  2 1 1 3.17061074E+02
END period  241

BEGIN period  242
  2 1 1 3.16997899E+02
END period  242

BEGIN period  243
  2 1 1 3.16935465E+02
END period  243

BEGIN period  244
  2 1 1 3.16873787E+02
END period  244

BEGIN period  245
  2 1 1 3.16812880E+02
END period  245

BEGIN period  246
  2 1 1 3.16752760E+02
END period  246

BEGIN period  247
  2 1 1 3.16693441E+02
END period  247

BEGIN period  248
  2 1 1 3.16634937E+02
END period  248

BEGIN period  249
  2 1 1 3.16577264E+02
END period  249

BEGIN period  250
  2 1 1 3.16520436E+02
END period  250

BEGIN period  251
  2 1 1 3.16464466E+02
END period  251

BEGIN period  252
  2 1 1 3.16409369E+02
END period  252

BEGIN period  253
  2 1 1 3.16355157E+02
END period  253

BEGIN period  254
  2 1 1 3.16301845E+02
END period  254

BEGIN period  255
  2 1 1 3.16249445E+02
END period  255

BEGIN period  256
  2 1 1 3.16197970E+02
END period  256

BEGIN period  257
  2 1 1 3.16147434E+02
END period  257

BEGIN period  258
  2 1 1 3.16097848E+02
END period  258

BEGIN period  259
  2 1 1 3.16049225E+02
END period  259

BEGIN period  260
  2 1 1 3.16001577E+02
END period  260

BEGIN period  261
  2 1 1 3.15954915E+02
END period  261

BEGIN period  262
  2 1 1 3.15909251E+02
END period  262

BEGIN period  263
  2 1 1 3.15864597E+02
END period  263

BEGIN period  264
  2 1 1 3.15820963E+02
END period  264

BEGIN period  265
  2 1 1 3.15778360E+02
END period  265

BEGIN period  266
  2 1 1 3.15736799E+02
END period  266

BEGIN period  267
  2 1 1 3.15696290E+02
END period  267

BEGIN period  268
  2 1 1 3.15656842E+02
END period  268

BEGIN period  269
  2 1 1 3.15618467E+02
END period  269

BEGIN period  270
  2 1 1 3.15581172E+02
END period  270

BEGIN period  271
  2 1 1 3.15544967E+02
END period  271

BEGIN period  272
  2 1 1 3.15509862E+02
END period  272

BEGIN period  273
  2 1 1 3.15475865E+02
END period  273

BEGIN period  274
  2 1 1 3.15442984E+02
END period  274

BEGIN period  275
  2 1 1 3.15411227E+02
END period  275

BEGIN period  276
  2 1 1 3.15380602E+02
END period  276

BEGIN period  277
  2 1 1 3.15351118E+02
END period  277

BEGIN period  278
  2 1 1 3.15322780E+02
END period  278

BEGIN period  279
  2 1 1 3.15295596E+02
END period  279

BEGIN period  280
  2 1 1 3.15269573E+02
END period  280

BEGIN period  281
  2 1 1 3.15244717E+02
END period  281

BEGIN period  282
  2 1 1 3.15221035E+02
END period  282

BEGIN period  283
  2 1 1 3.15198532E+02
END period  283

BEGIN period  284
  2 1 1 3.15177213E+02
END period  284

BEGIN period  285
  2 1 1 3.15157084E+02
END period  285

BEGIN period  286
  2 1 1 3.15138150E+02
END period  286

BEGIN period  287
  2 1 1 3.15120416E+02
END period  287

BEGIN period  288
  2 1 1 3.15103886E+02
END period  288

BEGIN period  289
  2 1 1 3.15088564E+02
END period  289

BEGIN period  290
  2 1 1 3.15074453E+02
END period  290

BEGIN period  291
  2 1 1 3.15061558E+02
END period  291

BEGIN period  292
  2 1 1 3.15049882E+02
END period  292

BEGIN period  293
  2 1 1 3.15039426E+02
END period  293

BEGIN period  294
  2 1 1 3.15030195E+02
END period  294

BEGIN period  295
  2 1 1 3.15022190E+02
END period  295

BEGIN period  296
  2 1 1 3.15015413E+02
END period  296

BEGIN period  297
  2 1 1 3.15009866E+02
END period  297

BEGIN period  298
  2 1 1 3.15005551E+02
END period  298

BEGIN period  299
  2 1 1 3.15002467E+02
END period  299

BEGIN period  300
  2 1 1 3.15000617E+02
END period  300

BEGIN period  301
  2 1 1 3.15000000E+02
END period  301

BEGIN period  302
  2 1 1 3.15000617E+02
END period  302

BEGIN period  303
  2 1 1 3.15002467E+02
END period  303

BEGIN period  304
  2 1 1 3.15005551E+02
END period  304

BEGIN period  305
  2 1 1 3.15009866E+02
END period  305

BEGIN period  306
  2 1 1 3.15015413E+02
END period  306

BEGIN period  307
  2 1 1 3.15022190E+02
END period  307

BEGIN period  308
  2 1 1 3.15030195E+02
END period  308

BEGIN period  309
  2 1 1 3.15039426E+02
END period  309

BEGIN period  310
  2 1 1 3.15049882E+02
END period  310

BEGIN period  311
  2 1 1 3.15061558E+02
END period  311

BEGIN period  312
  2 1 1 3.15074453E+02
END period  312

BEGIN period  313
  2 1 1 3.15088564E+02
END period  313

BEGIN period  314
  2 1 1 3.15103886E+02
END period  314

BEGIN period  315
  2 1 1 3.15120416E+02
END period  315

BEGIN period  316
  2 1 1 3.15138150E+02
END period  316

BEGIN period  317
  2 1 1 3.15157084E+02
END period  317

BEGIN period  318
  2 1 1 3.15177213E+02
END period  318

BEGIN period  319
  2 1 1 3.15198532E+02
END period  319

BEGIN period  320
  2 1 1 3.15221035E+02
END period  320

BEGIN period  321
  2 1 1 3.15244717E+02
END period  321

BEGIN period  322
  2 1 1 3.15269573E+02
END period  322

BEGIN period  323
  2 1 1 3.15295596E+02
END period  323

BEGIN period  324
  2 1 1 3.15322780E+02
END period  324

BEGIN period  325
  2 1 1 3.15351118E+02
END period  325

BEGIN period  326
  2 1 1 3.15380602E+02
END period  326

BEGIN period  327
  2 1 1 3.15411227E+02
END period  327

BEGIN period  328
  2 1 1 3.15442984E+02
END period  328

BEGIN period  329
  2 1 1 3.15475865E+02
END period  329

BEGIN period  330
  2 1 1 3.15509862E+02
END period  330

BEGIN period  331
  2 1 1 3.15544967E+02
END period  331

BEGIN period  332
  2 1 1 3.15581172E+02
END period  332

BEGIN period  333
  2 1 1 3.15618467E+02
END period  333

BEGIN period  334
  2 1 1 3.15656842E+02
END period  334

BEGIN period  335
  2 1 1 3.15696290E+02
END period  335

BEGIN period  336
  2 1 1 3.15736799E+02
END period  336

BEGIN period  337
  2 1 1 3.15778360E+02
END period  337

BEGIN period  338
  2 1 1 3.15820963E+02
END period  338

BEGIN period  339
  2 1 1 3.15864597E+02
END period  339

BEGIN period  340
  2 1 1 3.15909251E+02
END period  340

BEGIN period  341
  2 1 1 3.15954915E+02
END period  341

BEGIN period  342
  2 1 1 3.16001577E+02
END period  342

BEGIN period  343
  2 1 1 3.16049225E+02
END period  343

BEGIN period  344
  2 1 1 3.16097848E+02
END period  344

BEGIN period  345
  2 1 1 3.16147434E+02
END period  345

BEGIN period  346
  2 1 1 3.16197970E+02
END period  346

BEGIN period  347
  2 1 1 3.16249445E+02
END period  347

BEGIN period  348
  2 1 1 3.16301845E+02
END period  348

BEGIN period  349
  2 1 1 3.16355157E+02
END period  349

BEGIN period  350
  2 1 1 3.16409369E+02
END period  350

BEGIN period  351
  2 1 1 3.16464466E+02
END period  351

BEGIN period  352
  2 1 1 3.16520436E+02
END period  352

BEGIN period  353
  2 1 1 3.16577264E+02
END period  353

BEGIN period  354
  2 1 1 3.16634937E+02
END period  354

BEGIN period  355
  2 1 1 3.16693441E+02
END period  355

BEGIN period  356
  2 1 1 3.16752760E+02
END period  356

BEGIN period  357
  2 1 1 3.16812880E+02
END period  357

BEGIN period  358
  2 1 1 3.16873787E+02
END period  358

BEGIN period  359
  2 1 1 3.16935465E+02
END period  359

BEGIN period  360
  2 1 1 3.16997899E+02
END period  360

BEGIN period  361
  2 1 1 3.17061074E+02
END period  361

BEGIN period  362
  2 1 1 3.17124974E+02
END period  362

BEGIN period  363
  2 1 1 3.17189583E+02
END period  363

BEGIN period  364
  2 1 1 3.17254886E+02
END period  364

BEGIN period  365
  2 1 1 3.17320866E+02
END period  365

BEGIN period  366
  2 1 1 3.17387507E+02
END period  366

BEGIN period  367
  2 1 1 3.17454793E+02
END period  367

BEGIN period  368
  2 1 1 3.17522707E+02
END period  368

BEGIN period  369
  2 1 1 3.17591232E+02
END period  369

BEGIN period  370
  2 1 1 3.17660351E+02
END period  370

BEGIN period  371
  2 1 1 3.17730048E+02
END period  371

BEGIN period  372
  2 1 1 3.17800304E+02
END period  372

BEGIN period  373
  2 1 1 3.17871104E+02
END period  373

BEGIN period  374
  2 1 1 3.17942428E+02
END period  374

BEGIN period  375
  2 1 1 3.18014261E+02
END period  375

BEGIN period  376
  2 1 1 3.18086583E+02
END period  376

BEGIN period  377
  2 1 1 3.18159377E+02
END period  377

BEGIN period  378
  2 1 1 3.18232626E+02
END period  378

BEGIN period  379
  2 1 1 3.18306310E+02
END period  379

BEGIN period  380
  2 1 1 3.18380413E+02
END period  380

BEGIN period  381
  2 1 1 3.18454915E+02
END period  381

BEGIN period  382
  2 1 1 3.18529798E+02
END period  382

BEGIN period  383
  2 1 1 3.18605044E+02
END period  383

BEGIN period  384
  2 1 1 3.18680635E+02
END period  384

BEGIN period  385
  2 1 1 3.18756551E+02
END period  385

BEGIN period  386
  2 1 1 3.18832773E+02
END period  386

BEGIN period  387
  2 1 1 3.18909284E+02
END period  387

BEGIN period  388
  2 1 1 3.18986064E+02
END period  388

BEGIN period  389
  2 1 1 3.19063093E+02
END period  389

BEGIN period  390
  2 1 1 3.19140354E+02
END period  390

BEGIN period  391
  2 1 1 3.19217828E+02
END period  391

BEGIN period  392
  2 1 1 3.19295494E+02
END period  392

BEGIN period  393
  2 1 1 3.19373334E+02
END period  393

BEGIN period  394
  2 1 1 3.19451328E+02
END period  394

BEGIN period  395
  2 1 1 3.19529458E+02
END period  395

BEGIN period  396
  2 1 1 3.19607705E+02
END period  396

BEGIN period  397
  2 1 1 3.19686047E+02
END period  397

BEGIN period  398
  2 1 1 3.19764468E+02
END period  398

BEGIN period  399
  2 1 1 3.19842946E+02
END period  399

BEGIN period  400
  2 1 1 3.19921463E+02
END period  400

BEGIN period  401
  2 1 1 3.20000000E+02
END period  401

