# File generated by Flopy version 3.7.0 on 01/05/2025 at 08:01:09.
BEGIN options
END options

BEGIN griddata
  strt
    CONSTANT     320.00000000
END griddata

