# File generated by Flopy version 3.7.0 on 01/05/2025 at 08:01:10.
BEGIN options
  BUDGET  FILEOUT  rivercond.cbc
  HEAD  FILEOUT  rivercond.hds
END options

BEGIN period  1
  SAVE  head  all
  SAVE  budget  all
  PRINT  budget  all
END period  1

