# File generated by Flopy version 3.7.0 on 01/05/2025 at 08:01:09.
BEGIN options
  PRINT_FLOWS
END options

BEGIN dimensions
  MAXBOUND  1
END dimensions

BEGIN period  1
  1 1 1 3.20000000E+02 1.00000000E+00 3.19000000E+02
END period  1

