# File generated by Flopy version 3.7.0 on 01/05/2025 at 08:01:09.
BEGIN options
END options

BEGIN griddata
  icelltype
    CONSTANT  0
  k
    CONSTANT      50.00000000
  k33
    CONSTANT      10.00000000
END griddata

