# File generated by Flopy version 3.7.0 on 01/05/2025 at 08:01:09.
BEGIN options
END options

BEGIN dimensions
  NLAY  2
  NROW  1
  NCOL  1
END dimensions

BEGIN griddata
  delr
    CONSTANT       1.00000000
  delc
    CONSTANT       1.00000000
  top
    CONSTANT     360.00000000
  botm  LAYERED
    CONSTANT     220.00000000
    CONSTANT     200.00000000
END griddata

