# File generated by Flopy version 3.7.0 on 01/05/2025 at 08:01:09.
BEGIN options
  PRINT_INPUT
  SAVE_FLOWS
END options

BEGIN packages
  DIS6  rivercond.dis  dis
  NPF6  rivercond.npf  npf
  IC6  rivercond.ic  ic
  RIV6  rivercond.riv  river
  CHD6  rivercond.chd  chd_0
  OC6  rivercond.oc  oc
END packages

