# File generated by Flopy version 3.3.5 on 03/04/2022 at 11:14:01.
BEGIN griddata
  strt
    CONSTANT    1050.00000000
END griddata

