# File generated by Flopy version 3.3.5 on 03/04/2022 at 11:14:01.
BEGIN options
END options

BEGIN dimensions
  MAXBOUND  2
END dimensions

BEGIN period  1
  1 13 1     988.00000000       0.03800000
  1 14 9    1045.00000000       0.03800000
END period  1

