# File generated by Flopy version 3.3.5 on 03/04/2022 at 11:14:01.
BEGIN options
  DIGITS  10
  PRINT_INPUT
END options

BEGIN continuous  FILEOUT  ex-gwf-drn-p01.surfrate.obs.csv
  surfrate  to-mvr  surfrate
END continuous  FILEOUT  ex-gwf-drn-p01.surfrate.obs.csv

