# File generated by Flopy version 3.3.5 on 03/04/2022 at 11:14:01.
BEGIN options
END options

BEGIN dimensions
  MAXMVR  232
  MAXPACKAGES  3
END dimensions

BEGIN packages
  SFR-1
  UZF-1
  DRN-1
END packages

BEGIN period  1
  UZF-1  1  SFR-1  1  FACTOR       1.00000000
  UZF-1  2  SFR-1  2  FACTOR       1.00000000
  UZF-1  3  SFR-1  1  FACTOR       1.00000000
  UZF-1  4  SFR-1  2  FACTOR       1.00000000
  UZF-1  5  SFR-1  3  FACTOR       1.00000000
  UZF-1  6  SFR-1  11  FACTOR       1.00000000
  UZF-1  7  SFR-1  12  FACTOR       1.00000000
  UZF-1  8  SFR-1  13  FACTOR       1.00000000
  UZF-1  9  SFR-1  2  FACTOR       1.00000000
  UZF-1  10  SFR-1  3  FACTOR       1.00000000
  UZF-1  11  SFR-1  4  FACTOR       1.00000000
  UZF-1  12  SFR-1  10  FACTOR       1.00000000
  UZF-1  13  SFR-1  11  FACTOR       1.00000000
  UZF-1  14  SFR-1  12  FACTOR       1.00000000
  UZF-1  15  SFR-1  13  FACTOR       1.00000000
  UZF-1  16  SFR-1  35  FACTOR       1.00000000
  UZF-1  17  SFR-1  35  FACTOR       1.00000000
  UZF-1  18  SFR-1  3  FACTOR       1.00000000
  UZF-1  19  SFR-1  5  FACTOR       1.00000000
  UZF-1  20  SFR-1  5  FACTOR       1.00000000
  UZF-1  21  SFR-1  5  FACTOR       1.00000000
  UZF-1  22  SFR-1  2  FACTOR       1.00000000
  UZF-1  23  SFR-1  13  FACTOR       1.00000000
  UZF-1  24  SFR-1  13  FACTOR       1.00000000
  UZF-1  25  SFR-1  35  FACTOR       1.00000000
  UZF-1  26  SFR-1  35  FACTOR       1.00000000
  UZF-1  27  SFR-1  34  FACTOR       1.00000000
  UZF-1  28  SFR-1  34  FACTOR       1.00000000
  UZF-1  29  SFR-1  6  FACTOR       1.00000000
  UZF-1  30  SFR-1  6  FACTOR       1.00000000
  UZF-1  31  SFR-1  2  FACTOR       1.00000000
  UZF-1  32  SFR-1  14  FACTOR       1.00000000
  UZF-1  33  SFR-1  17  FACTOR       1.00000000
  UZF-1  34  SFR-1  16  FACTOR       1.00000000
  UZF-1  35  SFR-1  35  FACTOR       1.00000000
  UZF-1  36  SFR-1  35  FACTOR       1.00000000
  UZF-1  37  SFR-1  34  FACTOR       1.00000000
  UZF-1  38  SFR-1  34  FACTOR       1.00000000
  UZF-1  39  SFR-1  33  FACTOR       1.00000000
  UZF-1  40  SFR-1  7  FACTOR       1.00000000
  UZF-1  41  SFR-1  2  FACTOR       1.00000000
  UZF-1  42  SFR-1  18  FACTOR       1.00000000
  UZF-1  43  SFR-1  17  FACTOR       1.00000000
  UZF-1  44  SFR-1  16  FACTOR       1.00000000
  UZF-1  45  SFR-1  35  FACTOR       1.00000000
  UZF-1  46  SFR-1  35  FACTOR       1.00000000
  UZF-1  47  SFR-1  34  FACTOR       1.00000000
  UZF-1  48  SFR-1  34  FACTOR       1.00000000
  UZF-1  49  SFR-1  33  FACTOR       1.00000000
  UZF-1  50  SFR-1  32  FACTOR       1.00000000
  UZF-1  51  SFR-1  20  FACTOR       1.00000000
  UZF-1  52  SFR-1  20  FACTOR       1.00000000
  UZF-1  53  SFR-1  20  FACTOR       1.00000000
  UZF-1  54  SFR-1  35  FACTOR       1.00000000
  UZF-1  55  SFR-1  34  FACTOR       1.00000000
  UZF-1  56  SFR-1  33  FACTOR       1.00000000
  UZF-1  57  SFR-1  33  FACTOR       1.00000000
  UZF-1  58  SFR-1  9  FACTOR       1.00000000
  UZF-1  59  SFR-1  21  FACTOR       1.00000000
  UZF-1  60  SFR-1  21  FACTOR       1.00000000
  UZF-1  61  SFR-1  21  FACTOR       1.00000000
  UZF-1  62  SFR-1  35  FACTOR       1.00000000
  UZF-1  63  SFR-1  34  FACTOR       1.00000000
  UZF-1  64  SFR-1  33  FACTOR       1.00000000
  UZF-1  65  SFR-1  32  FACTOR       1.00000000
  UZF-1  66  SFR-1  23  FACTOR       1.00000000
  UZF-1  67  SFR-1  23  FACTOR       1.00000000
  UZF-1  68  SFR-1  23  FACTOR       1.00000000
  UZF-1  69  SFR-1  23  FACTOR       1.00000000
  UZF-1  70  SFR-1  35  FACTOR       1.00000000
  UZF-1  71  SFR-1  34  FACTOR       1.00000000
  UZF-1  72  SFR-1  33  FACTOR       1.00000000
  UZF-1  73  SFR-1  32  FACTOR       1.00000000
  UZF-1  74  SFR-1  24  FACTOR       1.00000000
  UZF-1  75  SFR-1  24  FACTOR       1.00000000
  UZF-1  76  SFR-1  24  FACTOR       1.00000000
  UZF-1  77  SFR-1  24  FACTOR       1.00000000
  UZF-1  78  SFR-1  24  FACTOR       1.00000000
  UZF-1  79  SFR-1  35  FACTOR       1.00000000
  UZF-1  80  SFR-1  34  FACTOR       1.00000000
  UZF-1  81  SFR-1  33  FACTOR       1.00000000
  UZF-1  82  SFR-1  32  FACTOR       1.00000000
  UZF-1  83  SFR-1  31  FACTOR       1.00000000
  UZF-1  84  SFR-1  25  FACTOR       1.00000000
  UZF-1  85  SFR-1  6  FACTOR       1.00000000
  UZF-1  86  SFR-1  7  FACTOR       1.00000000
  UZF-1  87  SFR-1  36  FACTOR       1.00000000
  UZF-1  88  SFR-1  35  FACTOR       1.00000000
  UZF-1  89  SFR-1  34  FACTOR       1.00000000
  UZF-1  90  SFR-1  33  FACTOR       1.00000000
  UZF-1  91  SFR-1  32  FACTOR       1.00000000
  UZF-1  92  SFR-1  31  FACTOR       1.00000000
  UZF-1  93  SFR-1  26  FACTOR       1.00000000
  UZF-1  94  SFR-1  7  FACTOR       1.00000000
  UZF-1  95  SFR-1  7  FACTOR       1.00000000
  UZF-1  96  SFR-1  36  FACTOR       1.00000000
  UZF-1  97  SFR-1  35  FACTOR       1.00000000
  UZF-1  98  SFR-1  34  FACTOR       1.00000000
  UZF-1  99  SFR-1  33  FACTOR       1.00000000
  UZF-1  100  SFR-1  32  FACTOR       1.00000000
  UZF-1  101  SFR-1  31  FACTOR       1.00000000
  UZF-1  102  SFR-1  30  FACTOR       1.00000000
  UZF-1  103  SFR-1  29  FACTOR       1.00000000
  UZF-1  104  SFR-1  7  FACTOR       1.00000000
  UZF-1  105  SFR-1  35  FACTOR       1.00000000
  UZF-1  106  SFR-1  34  FACTOR       1.00000000
  UZF-1  107  SFR-1  33  FACTOR       1.00000000
  UZF-1  108  SFR-1  32  FACTOR       1.00000000
  UZF-1  109  SFR-1  31  FACTOR       1.00000000
  UZF-1  110  SFR-1  7  FACTOR       1.00000000
  UZF-1  111  SFR-1  7  FACTOR       1.00000000
  UZF-1  112  SFR-1  28  FACTOR       1.00000000
  UZF-1  113  SFR-1  35  FACTOR       1.00000000
  UZF-1  114  SFR-1  34  FACTOR       1.00000000
  UZF-1  115  SFR-1  33  FACTOR       1.00000000
  UZF-1  116  SFR-1  32  FACTOR       1.00000000
  DRN-1  1  SFR-1  1  FACTOR       1.00000000
  DRN-1  2  SFR-1  2  FACTOR       1.00000000
  DRN-1  3  SFR-1  1  FACTOR       1.00000000
  DRN-1  4  SFR-1  2  FACTOR       1.00000000
  DRN-1  5  SFR-1  3  FACTOR       1.00000000
  DRN-1  6  SFR-1  11  FACTOR       1.00000000
  DRN-1  7  SFR-1  12  FACTOR       1.00000000
  DRN-1  8  SFR-1  13  FACTOR       1.00000000
  DRN-1  9  SFR-1  2  FACTOR       1.00000000
  DRN-1  10  SFR-1  3  FACTOR       1.00000000
  DRN-1  11  SFR-1  4  FACTOR       1.00000000
  DRN-1  12  SFR-1  10  FACTOR       1.00000000
  DRN-1  13  SFR-1  11  FACTOR       1.00000000
  DRN-1  14  SFR-1  12  FACTOR       1.00000000
  DRN-1  15  SFR-1  13  FACTOR       1.00000000
  DRN-1  16  SFR-1  35  FACTOR       1.00000000
  DRN-1  17  SFR-1  35  FACTOR       1.00000000
  DRN-1  18  SFR-1  3  FACTOR       1.00000000
  DRN-1  19  SFR-1  5  FACTOR       1.00000000
  DRN-1  20  SFR-1  5  FACTOR       1.00000000
  DRN-1  21  SFR-1  5  FACTOR       1.00000000
  DRN-1  22  SFR-1  2  FACTOR       1.00000000
  DRN-1  23  SFR-1  13  FACTOR       1.00000000
  DRN-1  24  SFR-1  13  FACTOR       1.00000000
  DRN-1  25  SFR-1  35  FACTOR       1.00000000
  DRN-1  26  SFR-1  35  FACTOR       1.00000000
  DRN-1  27  SFR-1  34  FACTOR       1.00000000
  DRN-1  28  SFR-1  34  FACTOR       1.00000000
  DRN-1  29  SFR-1  6  FACTOR       1.00000000
  DRN-1  30  SFR-1  6  FACTOR       1.00000000
  DRN-1  31  SFR-1  2  FACTOR       1.00000000
  DRN-1  32  SFR-1  14  FACTOR       1.00000000
  DRN-1  33  SFR-1  17  FACTOR       1.00000000
  DRN-1  34  SFR-1  16  FACTOR       1.00000000
  DRN-1  35  SFR-1  35  FACTOR       1.00000000
  DRN-1  36  SFR-1  35  FACTOR       1.00000000
  DRN-1  37  SFR-1  34  FACTOR       1.00000000
  DRN-1  38  SFR-1  34  FACTOR       1.00000000
  DRN-1  39  SFR-1  33  FACTOR       1.00000000
  DRN-1  40  SFR-1  7  FACTOR       1.00000000
  DRN-1  41  SFR-1  2  FACTOR       1.00000000
  DRN-1  42  SFR-1  18  FACTOR       1.00000000
  DRN-1  43  SFR-1  17  FACTOR       1.00000000
  DRN-1  44  SFR-1  16  FACTOR       1.00000000
  DRN-1  45  SFR-1  35  FACTOR       1.00000000
  DRN-1  46  SFR-1  35  FACTOR       1.00000000
  DRN-1  47  SFR-1  34  FACTOR       1.00000000
  DRN-1  48  SFR-1  34  FACTOR       1.00000000
  DRN-1  49  SFR-1  33  FACTOR       1.00000000
  DRN-1  50  SFR-1  32  FACTOR       1.00000000
  DRN-1  51  SFR-1  20  FACTOR       1.00000000
  DRN-1  52  SFR-1  20  FACTOR       1.00000000
  DRN-1  53  SFR-1  20  FACTOR       1.00000000
  DRN-1  54  SFR-1  35  FACTOR       1.00000000
  DRN-1  55  SFR-1  34  FACTOR       1.00000000
  DRN-1  56  SFR-1  33  FACTOR       1.00000000
  DRN-1  57  SFR-1  33  FACTOR       1.00000000
  DRN-1  58  SFR-1  9  FACTOR       1.00000000
  DRN-1  59  SFR-1  21  FACTOR       1.00000000
  DRN-1  60  SFR-1  21  FACTOR       1.00000000
  DRN-1  61  SFR-1  21  FACTOR       1.00000000
  DRN-1  62  SFR-1  35  FACTOR       1.00000000
  DRN-1  63  SFR-1  34  FACTOR       1.00000000
  DRN-1  64  SFR-1  33  FACTOR       1.00000000
  DRN-1  65  SFR-1  32  FACTOR       1.00000000
  DRN-1  66  SFR-1  23  FACTOR       1.00000000
  DRN-1  67  SFR-1  23  FACTOR       1.00000000
  DRN-1  68  SFR-1  23  FACTOR       1.00000000
  DRN-1  69  SFR-1  23  FACTOR       1.00000000
  DRN-1  70  SFR-1  35  FACTOR       1.00000000
  DRN-1  71  SFR-1  34  FACTOR       1.00000000
  DRN-1  72  SFR-1  33  FACTOR       1.00000000
  DRN-1  73  SFR-1  32  FACTOR       1.00000000
  DRN-1  74  SFR-1  24  FACTOR       1.00000000
  DRN-1  75  SFR-1  24  FACTOR       1.00000000
  DRN-1  76  SFR-1  24  FACTOR       1.00000000
  DRN-1  77  SFR-1  24  FACTOR       1.00000000
  DRN-1  78  SFR-1  24  FACTOR       1.00000000
  DRN-1  79  SFR-1  35  FACTOR       1.00000000
  DRN-1  80  SFR-1  34  FACTOR       1.00000000
  DRN-1  81  SFR-1  33  FACTOR       1.00000000
  DRN-1  82  SFR-1  32  FACTOR       1.00000000
  DRN-1  83  SFR-1  31  FACTOR       1.00000000
  DRN-1  84  SFR-1  25  FACTOR       1.00000000
  DRN-1  85  SFR-1  6  FACTOR       1.00000000
  DRN-1  86  SFR-1  7  FACTOR       1.00000000
  DRN-1  87  SFR-1  36  FACTOR       1.00000000
  DRN-1  88  SFR-1  35  FACTOR       1.00000000
  DRN-1  89  SFR-1  34  FACTOR       1.00000000
  DRN-1  90  SFR-1  33  FACTOR       1.00000000
  DRN-1  91  SFR-1  32  FACTOR       1.00000000
  DRN-1  92  SFR-1  31  FACTOR       1.00000000
  DRN-1  93  SFR-1  26  FACTOR       1.00000000
  DRN-1  94  SFR-1  7  FACTOR       1.00000000
  DRN-1  95  SFR-1  7  FACTOR       1.00000000
  DRN-1  96  SFR-1  36  FACTOR       1.00000000
  DRN-1  97  SFR-1  35  FACTOR       1.00000000
  DRN-1  98  SFR-1  34  FACTOR       1.00000000
  DRN-1  99  SFR-1  33  FACTOR       1.00000000
  DRN-1  100  SFR-1  32  FACTOR       1.00000000
  DRN-1  101  SFR-1  31  FACTOR       1.00000000
  DRN-1  102  SFR-1  30  FACTOR       1.00000000
  DRN-1  103  SFR-1  29  FACTOR       1.00000000
  DRN-1  104  SFR-1  7  FACTOR       1.00000000
  DRN-1  105  SFR-1  35  FACTOR       1.00000000
  DRN-1  106  SFR-1  34  FACTOR       1.00000000
  DRN-1  107  SFR-1  33  FACTOR       1.00000000
  DRN-1  108  SFR-1  32  FACTOR       1.00000000
  DRN-1  109  SFR-1  31  FACTOR       1.00000000
  DRN-1  110  SFR-1  7  FACTOR       1.00000000
  DRN-1  111  SFR-1  7  FACTOR       1.00000000
  DRN-1  112  SFR-1  28  FACTOR       1.00000000
  DRN-1  113  SFR-1  35  FACTOR       1.00000000
  DRN-1  114  SFR-1  34  FACTOR       1.00000000
  DRN-1  115  SFR-1  33  FACTOR       1.00000000
  DRN-1  116  SFR-1  32  FACTOR       1.00000000
END period  1

