# File generated by Flopy version 3.3.5 on 03/04/2022 at 11:14:01.
BEGIN options
END options

BEGIN dimensions
  MAXBOUND  10
END dimensions

BEGIN period  1
  1 6 4      -2.00000000
  1 6 5      -2.00000000
  1 7 4      -2.00000000
  1 7 5      -2.00000000
  1 8 4      -2.00000000
  1 8 5      -2.00000000
  1 9 4      -2.00000000
  1 9 5      -2.00000000
  1 10 4      -2.00000000
  1 10 5      -2.00000000
END period  1

BEGIN period  2
  1 6 4      -2.00000000
  1 6 5      -2.00000000
  1 7 4      -2.00000000
  1 7 5      -2.00000000
  1 8 4      -2.00000000
  1 8 5      -2.00000000
  1 9 4      -2.00000000
  1 9 5      -2.00000000
  1 10 4      -2.00000000
  1 10 5      -2.00000000
END period  2

BEGIN period  3
  1 6 4      -1.00000000
  1 6 5      -1.00000000
  1 7 4      -1.00000000
  1 7 5      -1.00000000
  1 8 4      -1.00000000
  1 8 5      -1.00000000
  1 9 4      -1.00000000
  1 9 5      -1.00000000
  1 10 4      -1.00000000
  1 10 5      -1.00000000
END period  3

BEGIN period  4
  1 6 4      -1.00000000
  1 6 5      -1.00000000
  1 7 4      -1.00000000
  1 7 5      -1.00000000
  1 8 4      -1.00000000
  1 8 5      -1.00000000
  1 9 4      -1.00000000
  1 9 5      -1.00000000
  1 10 4      -1.00000000
  1 10 5      -1.00000000
END period  4

BEGIN period  5
  1 6 4      -3.00000000
  1 6 5      -3.00000000
  1 7 4      -3.00000000
  1 7 5      -3.00000000
  1 8 4      -3.00000000
  1 8 5      -3.00000000
  1 9 4      -3.00000000
  1 9 5      -3.00000000
  1 10 4      -3.00000000
  1 10 5      -3.00000000
END period  5

BEGIN period  6
  
END period  6

BEGIN period  7
  1 6 4      -2.00000000
  1 6 5      -2.00000000
  1 7 4      -2.00000000
  1 7 5      -2.00000000
  1 8 4      -2.00000000
  1 8 5      -2.00000000
  1 9 4      -2.00000000
  1 9 5      -2.00000000
  1 10 4      -2.00000000
  1 10 5      -2.00000000
END period  7

BEGIN period  8
  
END period  8

BEGIN period  9
  1 6 4      -1.00000000
  1 6 5      -1.00000000
  1 7 4      -1.00000000
  1 7 5      -1.00000000
  1 8 4      -1.00000000
  1 8 5      -1.00000000
  1 9 4      -1.00000000
  1 9 5      -1.00000000
  1 10 4      -1.00000000
  1 10 5      -1.00000000
END period  9

BEGIN period  10
  
END period  10

BEGIN period  11
  1 6 4      -3.00000000
  1 6 5      -3.00000000
  1 7 4      -3.00000000
  1 7 5      -3.00000000
  1 8 4      -3.00000000
  1 8 5      -3.00000000
  1 9 4      -3.00000000
  1 9 5      -3.00000000
  1 10 4      -3.00000000
  1 10 5      -3.00000000
END period  11

BEGIN period  12
  
END period  12

