# File generated by Flopy version 3.3.5 on 03/04/2022 at 11:14:01.
BEGIN options
  BOUNDNAMES
  MOVER
  SIMULATE_ET
  LINEAR_GWET
END options

BEGIN dimensions
  NUZFCELLS  116
  NTRAILWAVES  25
  NWAVESETS  20
END dimensions

BEGIN packagedata
  1  1 1 1  1  0       1.00000000  1.00000000E-06       0.10000000       0.30000000       0.10000000       3.50000000  surfrate
  2  1 1 2  1  0       1.00000000  1.00000000E-06       0.10000000       0.30000000       0.10000000       3.50000000  surfrate
  3  1 2 1  1  0       1.00000000  1.00000000E-06       0.20000000       0.30000000       0.20000000       3.50000000  surfrate
  4  1 2 2  1  0       1.00000000  1.00000000E-06       0.10000000       0.30000000       0.10000000       3.50000000  surfrate
  5  1 2 3  1  0       1.00000000  1.00000000E-06       0.10000000       0.30000000       0.10000000       3.50000000  surfrate
  6  1 2 6  1  0       1.00000000  1.00000000E-06       0.20000000       0.30000000       0.20000000       3.50000000  surfrate
  7  1 2 7  1  0       1.00000000  1.00000000E-06       0.20000000       0.30000000       0.20000000       3.50000000  surfrate
  8  1 2 8  1  0       1.00000000  1.00000000E-06       0.20000000       0.30000000       0.20000000       3.50000000  surfrate
  9  1 3 2  1  0       1.00000000  1.00000000E-06       0.20000000       0.30000000       0.20000000       3.50000000  surfrate
  10  1 3 3  1  0       1.00000000  1.00000000E-06       0.10000000       0.30000000       0.10000000       3.50000000  surfrate
  11  1 3 4  1  0       1.00000000  1.00000000E-06       0.10000000       0.30000000       0.10000000       3.50000000  surfrate
  12  1 3 5  1  0       1.00000000  1.00000000E-06       0.20000000       0.30000000       0.20000000       3.50000000  surfrate
  13  1 3 6  1  0       1.00000000  1.00000000E-06       0.20000000       0.30000000       0.20000000       3.50000000  surfrate
  14  1 3 7  1  0       1.00000000  1.00000000E-06       0.20000000       0.30000000       0.20000000       3.50000000  surfrate
  15  1 3 8  1  0       1.00000000  1.00000000E-06       0.20000000       0.30000000       0.20000000       3.50000000  surfrate
  16  1 4 1  1  0       1.00000000  1.00000000E-06       0.20000000       0.30000000       0.20000000       3.50000000  surfrate
  17  1 4 2  1  0       1.00000000  1.00000000E-06       0.20000000       0.30000000       0.20000000       3.50000000  surfrate
  18  1 4 3  1  0       1.00000000  1.00000000E-06       0.20000000       0.30000000       0.20000000       3.50000000  surfrate
  19  1 4 4  1  0       1.00000000  1.00000000E-06       0.10000000       0.30000000       0.10000000       3.50000000  surfrate
  20  1 4 5  1  0       1.00000000  1.00000000E-06       0.10000000       0.30000000       0.10000000       3.50000000  surfrate
  21  1 4 6  1  0       1.00000000  1.00000000E-06       0.10000000       0.30000000       0.10000000       3.50000000  surfrate
  22  1 4 7  1  0       1.00000000  1.00000000E-06       0.20000000       0.30000000       0.20000000       3.50000000  surfrate
  23  1 4 8  1  0       1.00000000  1.00000000E-06       0.20000000       0.30000000       0.20000000       3.50000000  surfrate
  24  1 4 9  1  0       1.00000000  1.00000000E-06       0.20000000       0.30000000       0.20000000       3.50000000  surfrate
  25  1 5 1  1  0       1.00000000  1.00000000E-06       0.20000000       0.30000000       0.20000000       3.50000000  surfrate
  26  1 5 2  1  0       1.00000000  1.00000000E-06       0.20000000       0.30000000       0.20000000       3.50000000  surfrate
  27  1 5 3  1  0       1.00000000  1.00000000E-06       0.20000000       0.30000000       0.20000000       3.50000000  surfrate
  28  1 5 4  1  0       1.00000000  1.00000000E-06       0.10000000       0.30000000       0.10000000       3.50000000  surfrate
  29  1 5 5  1  0       1.00000000  1.00000000E-06       0.10000000       0.30000000       0.10000000       3.50000000  surfrate
  30  1 5 6  1  0       1.00000000  1.00000000E-06       0.10000000       0.30000000       0.10000000       3.50000000  surfrate
  31  1 5 7  1  0       1.00000000  1.00000000E-06       0.10000000       0.30000000       0.10000000       3.50000000  surfrate
  32  1 5 8  1  0       1.00000000  1.00000000E-06       0.10000000       0.30000000       0.10000000       3.50000000  surfrate
  33  1 5 9  1  0       1.00000000  1.00000000E-06       0.10000000       0.30000000       0.10000000       3.50000000  surfrate
  34  1 5 10  1  0       1.00000000  1.00000000E-06       0.10000000       0.30000000       0.10000000       3.50000000  surfrate
  35  1 6 1  1  0       1.00000000  1.00000000E-06       0.20000000       0.30000000       0.20000000       3.50000000  surfrate
  36  1 6 2  1  0       1.00000000  1.00000000E-06       0.20000000       0.30000000       0.20000000       3.50000000  surfrate
  37  1 6 3  1  0       1.00000000  1.00000000E-06       0.20000000       0.30000000       0.20000000       3.50000000  surfrate
  38  1 6 4  1  0       1.00000000  1.00000000E-06       0.10000000       0.30000000       0.10000000       3.50000000  surfrate
  39  1 6 5  1  0       1.00000000  1.00000000E-06       0.10000000       0.30000000       0.10000000       3.50000000  surfrate
  40  1 6 6  1  0       1.00000000  1.00000000E-06       0.10000000       0.30000000       0.10000000       3.50000000  surfrate
  41  1 6 7  1  0       1.00000000  1.00000000E-06       0.10000000       0.30000000       0.10000000       3.50000000  surfrate
  42  1 6 8  1  0       1.00000000  1.00000000E-06       0.10000000       0.30000000       0.10000000       3.50000000  surfrate
  43  1 6 9  1  0       1.00000000  1.00000000E-06       0.20000000       0.30000000       0.20000000       3.50000000  surfrate
  44  1 6 10  1  0       1.00000000  1.00000000E-06       0.20000000       0.30000000       0.20000000       3.50000000  surfrate
  45  1 7 1  1  0       1.00000000  1.00000000E-06       0.20000000       0.30000000       0.20000000       3.50000000  surfrate
  46  1 7 2  1  0       1.00000000  1.00000000E-06       0.20000000       0.30000000       0.20000000       3.50000000  surfrate
  47  1 7 3  1  0       1.00000000  1.00000000E-06       0.20000000       0.30000000       0.20000000       3.50000000  surfrate
  48  1 7 4  1  0       1.00000000  1.00000000E-06       0.10000000       0.30000000       0.10000000       3.50000000  surfrate
  49  1 7 5  1  0       1.00000000  1.00000000E-06       0.10000000       0.30000000       0.10000000       3.50000000  surfrate
  50  1 7 6  1  0       1.00000000  1.00000000E-06       0.10000000       0.30000000       0.10000000       3.50000000  surfrate
  51  1 7 7  1  0       1.00000000  1.00000000E-06       0.10000000       0.30000000       0.10000000       3.50000000  surfrate
  52  1 7 8  1  0       1.00000000  1.00000000E-06       0.10000000       0.30000000       0.10000000       3.50000000  surfrate
  53  1 7 9  1  0       1.00000000  1.00000000E-06       0.20000000       0.30000000       0.20000000       3.50000000  surfrate
  54  1 8 2  1  0       1.00000000  1.00000000E-06       0.20000000       0.30000000       0.20000000       3.50000000  surfrate
  55  1 8 3  1  0       1.00000000  1.00000000E-06       0.20000000       0.30000000       0.20000000       3.50000000  surfrate
  56  1 8 4  1  0       1.00000000  1.00000000E-06       0.10000000       0.30000000       0.10000000       3.50000000  surfrate
  57  1 8 5  1  0       1.00000000  1.00000000E-06       0.10000000       0.30000000       0.10000000       3.50000000  surfrate
  58  1 8 6  1  0       1.00000000  1.00000000E-06       0.10000000       0.30000000       0.10000000       3.50000000  surfrate
  59  1 8 7  1  0       1.00000000  1.00000000E-06       0.10000000       0.30000000       0.10000000       3.50000000  surfrate
  60  1 8 8  1  0       1.00000000  1.00000000E-06       0.20000000       0.30000000       0.20000000       3.50000000  surfrate
  61  1 8 9  1  0       1.00000000  1.00000000E-06       0.20000000       0.30000000       0.20000000       3.50000000  surfrate
  62  1 9 2  1  0       1.00000000  1.00000000E-06       0.20000000       0.30000000       0.20000000       3.50000000  surfrate
  63  1 9 3  1  0       1.00000000  1.00000000E-06       0.20000000       0.30000000       0.20000000       3.50000000  surfrate
  64  1 9 4  1  0       1.00000000  1.00000000E-06       0.10000000       0.30000000       0.10000000       3.50000000  surfrate
  65  1 9 5  1  0       1.00000000  1.00000000E-06       0.10000000       0.30000000       0.10000000       3.50000000  surfrate
  66  1 9 6  1  0       1.00000000  1.00000000E-06       0.10000000       0.30000000       0.10000000       3.50000000  surfrate
  67  1 9 7  1  0       1.00000000  1.00000000E-06       0.10000000       0.30000000       0.10000000       3.50000000  surfrate
  68  1 9 8  1  0       1.00000000  1.00000000E-06       0.20000000       0.30000000       0.20000000       3.50000000  surfrate
  69  1 9 9  1  0       1.00000000  1.00000000E-06       0.20000000       0.30000000       0.20000000       3.50000000  surfrate
  70  1 10 2  1  0       1.00000000  1.00000000E-06       0.20000000       0.30000000       0.20000000       3.50000000  surfrate
  71  1 10 3  1  0       1.00000000  1.00000000E-06       0.20000000       0.30000000       0.20000000       3.50000000  surfrate
  72  1 10 4  1  0       1.00000000  1.00000000E-06       0.10000000       0.30000000       0.10000000       3.50000000  surfrate
  73  1 10 5  1  0       1.00000000  1.00000000E-06       0.10000000       0.30000000       0.10000000       3.50000000  surfrate
  74  1 10 6  1  0       1.00000000  1.00000000E-06       0.10000000       0.30000000       0.10000000       3.50000000  surfrate
  75  1 10 7  1  0       1.00000000  1.00000000E-06       0.10000000       0.30000000       0.10000000       3.50000000  surfrate
  76  1 10 8  1  0       1.00000000  1.00000000E-06       0.20000000       0.30000000       0.20000000       3.50000000  surfrate
  77  1 10 9  1  0       1.00000000  1.00000000E-06       0.20000000       0.30000000       0.20000000       3.50000000  surfrate
  78  1 10 10  1  0       1.00000000  1.00000000E-06       0.20000000       0.30000000       0.20000000       3.50000000  surfrate
  79  1 11 2  1  0       1.00000000  1.00000000E-06       0.20000000       0.30000000       0.20000000       3.50000000  surfrate
  80  1 11 3  1  0       1.00000000  1.00000000E-06       0.20000000       0.30000000       0.20000000       3.50000000  surfrate
  81  1 11 4  1  0       1.00000000  1.00000000E-06       0.10000000       0.30000000       0.10000000       3.50000000  surfrate
  82  1 11 5  1  0       1.00000000  1.00000000E-06       0.10000000       0.30000000       0.10000000       3.50000000  surfrate
  83  1 11 6  1  0       1.00000000  1.00000000E-06       0.10000000       0.30000000       0.10000000       3.50000000  surfrate
  84  1 11 7  1  0       1.00000000  1.00000000E-06       0.10000000       0.30000000       0.10000000       3.50000000  surfrate
  85  1 11 8  1  0       1.00000000  1.00000000E-06       0.20000000       0.30000000       0.20000000       3.50000000  surfrate
  86  1 11 9  1  0       1.00000000  1.00000000E-06       0.20000000       0.30000000       0.20000000       3.50000000  surfrate
  87  1 12 1  1  0       1.00000000  1.00000000E-06       0.20000000       0.30000000       0.20000000       3.50000000  surfrate
  88  1 12 2  1  0       1.00000000  1.00000000E-06       0.20000000       0.30000000       0.20000000       3.50000000  surfrate
  89  1 12 3  1  0       1.00000000  1.00000000E-06       0.10000000       0.30000000       0.10000000       3.50000000  surfrate
  90  1 12 4  1  0       1.00000000  1.00000000E-06       0.10000000       0.30000000       0.10000000       3.50000000  surfrate
  91  1 12 5  1  0       1.00000000  1.00000000E-06       0.10000000       0.30000000       0.10000000       3.50000000  surfrate
  92  1 12 6  1  0       1.00000000  1.00000000E-06       0.10000000       0.30000000       0.10000000       3.50000000  surfrate
  93  1 12 7  1  0       1.00000000  1.00000000E-06       0.10000000       0.30000000       0.10000000       3.50000000  surfrate
  94  1 12 8  1  0       1.00000000  1.00000000E-06       0.20000000       0.30000000       0.20000000       3.50000000  surfrate
  95  1 12 9  1  0       1.00000000  1.00000000E-06       0.20000000       0.30000000       0.20000000       3.50000000  surfrate
  96  1 13 1  1  0       1.00000000  1.00000000E-06       0.10000000       0.30000000       0.10000000       3.50000000  surfrate
  97  1 13 2  1  0       1.00000000  1.00000000E-06       0.10000000       0.30000000       0.10000000       3.50000000  surfrate
  98  1 13 3  1  0       1.00000000  1.00000000E-06       0.10000000       0.30000000       0.10000000       3.50000000  surfrate
  99  1 13 4  1  0       1.00000000  1.00000000E-06       0.10000000       0.30000000       0.10000000       3.50000000  surfrate
  100  1 13 5  1  0       1.00000000  1.00000000E-06       0.10000000       0.30000000       0.10000000       3.50000000  surfrate
  101  1 13 6  1  0       1.00000000  1.00000000E-06       0.10000000       0.30000000       0.10000000       3.50000000  surfrate
  102  1 13 7  1  0       1.00000000  1.00000000E-06       0.10000000       0.30000000       0.10000000       3.50000000  surfrate
  103  1 13 8  1  0       1.00000000  1.00000000E-06       0.10000000       0.30000000       0.10000000       3.50000000  surfrate
  104  1 13 9  1  0       1.00000000  1.00000000E-06       0.10000000       0.30000000       0.10000000       3.50000000  surfrate
  105  1 14 2  1  0       1.00000000  1.00000000E-06       0.20000000       0.30000000       0.20000000       3.50000000  surfrate
  106  1 14 3  1  0       1.00000000  1.00000000E-06       0.20000000       0.30000000       0.20000000       3.50000000  surfrate
  107  1 14 4  1  0       1.00000000  1.00000000E-06       0.20000000       0.30000000       0.20000000       3.50000000  surfrate
  108  1 14 5  1  0       1.00000000  1.00000000E-06       0.20000000       0.30000000       0.20000000       3.50000000  surfrate
  109  1 14 6  1  0       1.00000000  1.00000000E-06       0.20000000       0.30000000       0.20000000       3.50000000  surfrate
  110  1 14 7  1  0       1.00000000  1.00000000E-06       0.20000000       0.30000000       0.20000000       3.50000000  surfrate
  111  1 14 8  1  0       1.00000000  1.00000000E-06       0.20000000       0.30000000       0.20000000       3.50000000  surfrate
  112  1 14 9  1  0       1.00000000  1.00000000E-06       0.10000000       0.30000000       0.10000000       3.50000000  surfrate
  113  1 15 3  1  0       1.00000000  1.00000000E-06       0.20000000       0.30000000       0.20000000       3.50000000  surfrate
  114  1 15 4  1  0       1.00000000  1.00000000E-06       0.20000000       0.30000000       0.20000000       3.50000000  surfrate
  115  1 15 5  1  0       1.00000000  1.00000000E-06       0.20000000       0.30000000       0.20000000       3.50000000  surfrate
  116  1 15 6  1  0       1.00000000  1.00000000E-06       0.20000000       0.30000000       0.20000000       3.50000000  surfrate
END packagedata

BEGIN period  1
  1  1e-09  5e-08  15.0  0.10005  0  0  0
  2  2e-09  5e-08  15.0  0.10005  0  0  0
  3  2e-09  5e-08  15.0  0.2001  0  0  0
  4  1e-09  5e-08  15.0  0.10005  0  0  0
  5  2e-09  5e-08  15.0  0.10005  0  0  0
  6  8e-09  5e-08  15.0  0.2001  0  0  0
  7  8e-09  5e-08  15.0  0.2001  0  0  0
  8  5e-09  5e-08  15.0  0.2001  0  0  0
  9  5e-09  5e-08  15.0  0.2001  0  0  0
  10  1e-09  5e-08  15.0  0.10005  0  0  0
  11  1e-09  5e-08  15.0  0.10005  0  0  0
  12  8e-09  5e-08  15.0  0.2001  0  0  0
  13  8e-09  5e-08  15.0  0.2001  0  0  0
  14  5e-09  5e-08  15.0  0.2001  0  0  0
  15  5e-09  5e-08  15.0  0.2001  0  0  0
  16  8e-09  5e-08  15.0  0.2001  0  0  0
  17  5e-09  5e-08  15.0  0.2001  0  0  0
  18  1e-09  5e-08  15.0  0.2001  0  0  0
  19  1e-09  5e-08  15.0  0.10005  0  0  0
  20  1e-09  5e-08  15.0  0.10005  0  0  0
  21  1e-09  5e-08  15.0  0.10005  0  0  0
  22  1e-09  5e-08  15.0  0.2001  0  0  0
  23  1e-09  5e-08  15.0  0.2001  0  0  0
  24  2e-09  5e-08  15.0  0.2001  0  0  0
  25  8e-09  5e-08  15.0  0.2001  0  0  0
  26  5e-09  5e-08  15.0  0.2001  0  0  0
  27  1e-09  5e-08  15.0  0.2001  0  0  0
  28  1e-09  5e-08  15.0  0.10005  0  0  0
  29  1e-09  5e-08  15.0  0.10005  0  0  0
  30  1e-09  5e-08  15.0  0.10005  0  0  0
  31  1e-09  5e-08  15.0  0.10005  0  0  0
  32  1e-09  5e-08  15.0  0.10005  0  0  0
  33  1e-09  5e-08  15.0  0.10005  0  0  0
  34  1e-09  5e-08  15.0  0.10005  0  0  0
  35  8e-09  5e-08  15.0  0.2001  0  0  0
  36  5e-09  5e-08  15.0  0.2001  0  0  0
  37  5e-09  5e-08  15.0  0.2001  0  0  0
  38  2e-09  5e-08  15.0  0.10005  0  0  0
  39  2e-09  5e-08  15.0  0.10005  0  0  0
  40  1e-09  5e-08  15.0  0.10005  0  0  0
  41  1e-09  5e-08  15.0  0.10005  0  0  0
  42  1e-09  5e-08  15.0  0.10005  0  0  0
  43  1e-09  5e-08  15.0  0.2001  0  0  0
  44  5e-09  5e-08  15.0  0.2001  0  0  0
  45  8e-09  5e-08  15.0  0.2001  0  0  0
  46  5e-09  5e-08  15.0  0.2001  0  0  0
  47  5e-09  5e-08  15.0  0.2001  0  0  0
  48  2e-09  5e-08  15.0  0.10005  0  0  0
  49  2e-09  5e-08  15.0  0.10005  0  0  0
  50  1e-09  5e-08  15.0  0.10005  0  0  0
  51  1e-09  5e-08  15.0  0.10005  0  0  0
  52  2e-09  5e-08  15.0  0.10005  0  0  0
  53  2e-09  5e-08  15.0  0.2001  0  0  0
  54  5e-09  5e-08  15.0  0.2001  0  0  0
  55  5e-09  5e-08  15.0  0.2001  0  0  0
  56  2e-09  5e-08  15.0  0.10005  0  0  0
  57  2e-09  5e-08  15.0  0.10005  0  0  0
  58  1e-09  5e-08  15.0  0.10005  0  0  0
  59  1e-09  5e-08  15.0  0.10005  0  0  0
  60  2e-09  5e-08  15.0  0.2001  0  0  0
  61  5e-09  5e-08  15.0  0.2001  0  0  0
  62  5e-09  5e-08  15.0  0.2001  0  0  0
  63  5e-09  5e-08  15.0  0.2001  0  0  0
  64  2e-09  5e-08  15.0  0.10005  0  0  0
  65  2e-09  5e-08  15.0  0.10005  0  0  0
  66  1e-09  5e-08  15.0  0.10005  0  0  0
  67  1e-09  5e-08  15.0  0.10005  0  0  0
  68  2e-09  5e-08  15.0  0.2001  0  0  0
  69  5e-09  5e-08  15.0  0.2001  0  0  0
  70  5e-09  5e-08  15.0  0.2001  0  0  0
  71  5e-09  5e-08  15.0  0.2001  0  0  0
  72  2e-09  5e-08  15.0  0.10005  0  0  0
  73  2e-09  5e-08  15.0  0.10005  0  0  0
  74  1e-09  5e-08  15.0  0.10005  0  0  0
  75  1e-09  5e-08  15.0  0.10005  0  0  0
  76  2e-09  5e-08  15.0  0.2001  0  0  0
  77  5e-09  5e-08  15.0  0.2001  0  0  0
  78  8e-09  5e-08  15.0  0.2001  0  0  0
  79  1e-09  5e-08  15.0  0.2001  0  0  0
  80  1e-09  5e-08  15.0  0.2001  0  0  0
  81  1e-09  5e-08  15.0  0.10005  0  0  0
  82  1e-09  5e-08  15.0  0.10005  0  0  0
  83  1e-09  5e-08  15.0  0.10005  0  0  0
  84  1e-09  5e-08  15.0  0.10005  0  0  0
  85  2e-09  5e-08  15.0  0.2001  0  0  0
  86  5e-09  5e-08  15.0  0.2001  0  0  0
  87  1e-09  5e-08  15.0  0.2001  0  0  0
  88  1e-09  5e-08  15.0  0.2001  0  0  0
  89  1e-09  5e-08  15.0  0.10005  0  0  0
  90  1e-09  5e-08  15.0  0.10005  0  0  0
  91  1e-09  5e-08  15.0  0.10005  0  0  0
  92  1e-09  5e-08  15.0  0.10005  0  0  0
  93  1e-09  5e-08  15.0  0.10005  0  0  0
  94  1e-09  5e-08  15.0  0.2001  0  0  0
  95  2e-09  5e-08  15.0  0.2001  0  0  0
  96  1e-09  5e-08  15.0  0.10005  0  0  0
  97  1e-09  5e-08  15.0  0.10005  0  0  0
  98  2e-09  5e-08  15.0  0.10005  0  0  0
  99  2e-09  5e-08  15.0  0.10005  0  0  0
  100  2e-09  5e-08  15.0  0.10005  0  0  0
  101  2e-09  5e-08  15.0  0.10005  0  0  0
  102  2e-09  5e-08  15.0  0.10005  0  0  0
  103  1e-09  5e-08  15.0  0.10005  0  0  0
  104  1e-09  5e-08  15.0  0.10005  0  0  0
  105  2e-09  5e-08  15.0  0.2001  0  0  0
  106  5e-09  5e-08  15.0  0.2001  0  0  0
  107  5e-09  5e-08  15.0  0.2001  0  0  0
  108  5e-09  5e-08  15.0  0.2001  0  0  0
  109  5e-09  5e-08  15.0  0.2001  0  0  0
  110  5e-09  5e-08  15.0  0.2001  0  0  0
  111  2e-09  5e-08  15.0  0.2001  0  0  0
  112  1e-09  5e-08  15.0  0.10005  0  0  0
  113  8e-09  5e-08  15.0  0.2001  0  0  0
  114  8e-09  5e-08  15.0  0.2001  0  0  0
  115  8e-09  5e-08  15.0  0.2001  0  0  0
  116  8e-09  5e-08  15.0  0.2001  0  0  0
END period  1

BEGIN period  2
  1  8e-09  5e-08  15.0  0.10005  0  0  0
  2  1.6e-08  5e-08  15.0  0.10005  0  0  0
  3  1.6e-08  5e-08  15.0  0.2001  0  0  0
  4  8e-09  5e-08  15.0  0.10005  0  0  0
  5  1.6e-08  5e-08  15.0  0.10005  0  0  0
  6  6.4e-08  5e-08  15.0  0.2001  0  0  0
  7  6.4e-08  5e-08  15.0  0.2001  0  0  0
  8  4e-08  5e-08  15.0  0.2001  0  0  0
  9  4e-08  5e-08  15.0  0.2001  0  0  0
  10  8e-09  5e-08  15.0  0.10005  0  0  0
  11  8e-09  5e-08  15.0  0.10005  0  0  0
  12  6.4e-08  5e-08  15.0  0.2001  0  0  0
  13  6.4e-08  5e-08  15.0  0.2001  0  0  0
  14  4e-08  5e-08  15.0  0.2001  0  0  0
  15  4e-08  5e-08  15.0  0.2001  0  0  0
  16  6.4e-08  5e-08  15.0  0.2001  0  0  0
  17  4e-08  5e-08  15.0  0.2001  0  0  0
  18  8e-09  5e-08  15.0  0.2001  0  0  0
  19  8e-09  5e-08  15.0  0.10005  0  0  0
  20  8e-09  5e-08  15.0  0.10005  0  0  0
  21  8e-09  5e-08  15.0  0.10005  0  0  0
  22  8e-09  5e-08  15.0  0.2001  0  0  0
  23  8e-09  5e-08  15.0  0.2001  0  0  0
  24  1.6e-08  5e-08  15.0  0.2001  0  0  0
  25  6.4e-08  5e-08  15.0  0.2001  0  0  0
  26  4e-08  5e-08  15.0  0.2001  0  0  0
  27  8e-09  5e-08  15.0  0.2001  0  0  0
  28  8e-09  5e-08  15.0  0.10005  0  0  0
  29  8e-09  5e-08  15.0  0.10005  0  0  0
  30  8e-09  5e-08  15.0  0.10005  0  0  0
  31  8e-09  5e-08  15.0  0.10005  0  0  0
  32  8e-09  5e-08  15.0  0.10005  0  0  0
  33  8e-09  5e-08  15.0  0.10005  0  0  0
  34  8e-09  5e-08  15.0  0.10005  0  0  0
  35  6.4e-08  5e-08  15.0  0.2001  0  0  0
  36  4e-08  5e-08  15.0  0.2001  0  0  0
  37  4e-08  5e-08  15.0  0.2001  0  0  0
  38  1.6e-08  5e-08  15.0  0.10005  0  0  0
  39  1.6e-08  5e-08  15.0  0.10005  0  0  0
  40  8e-09  5e-08  15.0  0.10005  0  0  0
  41  8e-09  5e-08  15.0  0.10005  0  0  0
  42  8e-09  5e-08  15.0  0.10005  0  0  0
  43  8e-09  5e-08  15.0  0.2001  0  0  0
  44  4e-08  5e-08  15.0  0.2001  0  0  0
  45  6.4e-08  5e-08  15.0  0.2001  0  0  0
  46  4e-08  5e-08  15.0  0.2001  0  0  0
  47  4e-08  5e-08  15.0  0.2001  0  0  0
  48  1.6e-08  5e-08  15.0  0.10005  0  0  0
  49  1.6e-08  5e-08  15.0  0.10005  0  0  0
  50  8e-09  5e-08  15.0  0.10005  0  0  0
  51  8e-09  5e-08  15.0  0.10005  0  0  0
  52  1.6e-08  5e-08  15.0  0.10005  0  0  0
  53  1.6e-08  5e-08  15.0  0.2001  0  0  0
  54  4e-08  5e-08  15.0  0.2001  0  0  0
  55  4e-08  5e-08  15.0  0.2001  0  0  0
  56  1.6e-08  5e-08  15.0  0.10005  0  0  0
  57  1.6e-08  5e-08  15.0  0.10005  0  0  0
  58  8e-09  5e-08  15.0  0.10005  0  0  0
  59  8e-09  5e-08  15.0  0.10005  0  0  0
  60  1.6e-08  5e-08  15.0  0.2001  0  0  0
  61  4e-08  5e-08  15.0  0.2001  0  0  0
  62  4e-08  5e-08  15.0  0.2001  0  0  0
  63  4e-08  5e-08  15.0  0.2001  0  0  0
  64  1.6e-08  5e-08  15.0  0.10005  0  0  0
  65  1.6e-08  5e-08  15.0  0.10005  0  0  0
  66  8e-09  5e-08  15.0  0.10005  0  0  0
  67  8e-09  5e-08  15.0  0.10005  0  0  0
  68  1.6e-08  5e-08  15.0  0.2001  0  0  0
  69  4e-08  5e-08  15.0  0.2001  0  0  0
  70  4e-08  5e-08  15.0  0.2001  0  0  0
  71  4e-08  5e-08  15.0  0.2001  0  0  0
  72  1.6e-08  5e-08  15.0  0.10005  0  0  0
  73  1.6e-08  5e-08  15.0  0.10005  0  0  0
  74  8e-09  5e-08  15.0  0.10005  0  0  0
  75  8e-09  5e-08  15.0  0.10005  0  0  0
  76  1.6e-08  5e-08  15.0  0.2001  0  0  0
  77  4e-08  5e-08  15.0  0.2001  0  0  0
  78  6.4e-08  5e-08  15.0  0.2001  0  0  0
  79  8e-09  5e-08  15.0  0.2001  0  0  0
  80  8e-09  5e-08  15.0  0.2001  0  0  0
  81  8e-09  5e-08  15.0  0.10005  0  0  0
  82  8e-09  5e-08  15.0  0.10005  0  0  0
  83  8e-09  5e-08  15.0  0.10005  0  0  0
  84  8e-09  5e-08  15.0  0.10005  0  0  0
  85  1.6e-08  5e-08  15.0  0.2001  0  0  0
  86  4e-08  5e-08  15.0  0.2001  0  0  0
  87  8e-09  5e-08  15.0  0.2001  0  0  0
  88  8e-09  5e-08  15.0  0.2001  0  0  0
  89  8e-09  5e-08  15.0  0.10005  0  0  0
  90  8e-09  5e-08  15.0  0.10005  0  0  0
  91  8e-09  5e-08  15.0  0.10005  0  0  0
  92  8e-09  5e-08  15.0  0.10005  0  0  0
  93  8e-09  5e-08  15.0  0.10005  0  0  0
  94  8e-09  5e-08  15.0  0.2001  0  0  0
  95  1.6e-08  5e-08  15.0  0.2001  0  0  0
  96  8e-09  5e-08  15.0  0.10005  0  0  0
  97  8e-09  5e-08  15.0  0.10005  0  0  0
  98  1.6e-08  5e-08  15.0  0.10005  0  0  0
  99  1.6e-08  5e-08  15.0  0.10005  0  0  0
  100  1.6e-08  5e-08  15.0  0.10005  0  0  0
  101  1.6e-08  5e-08  15.0  0.10005  0  0  0
  102  1.6e-08  5e-08  15.0  0.10005  0  0  0
  103  8e-09  5e-08  15.0  0.10005  0  0  0
  104  8e-09  5e-08  15.0  0.10005  0  0  0
  105  1.6e-08  5e-08  15.0  0.2001  0  0  0
  106  4e-08  5e-08  15.0  0.2001  0  0  0
  107  4e-08  5e-08  15.0  0.2001  0  0  0
  108  4e-08  5e-08  15.0  0.2001  0  0  0
  109  4e-08  5e-08  15.0  0.2001  0  0  0
  110  4e-08  5e-08  15.0  0.2001  0  0  0
  111  1.6e-08  5e-08  15.0  0.2001  0  0  0
  112  8e-09  5e-08  15.0  0.10005  0  0  0
  113  6.4e-08  5e-08  15.0  0.2001  0  0  0
  114  6.4e-08  5e-08  15.0  0.2001  0  0  0
  115  6.4e-08  5e-08  15.0  0.2001  0  0  0
  116  6.4e-08  5e-08  15.0  0.2001  0  0  0
END period  2

BEGIN period  3
  1  1e-08  5e-08  15.0  0.10005  0  0  0
  2  2e-08  5e-08  15.0  0.10005  0  0  0
  3  2e-08  5e-08  15.0  0.2001  0  0  0
  4  1e-08  5e-08  15.0  0.10005  0  0  0
  5  2e-08  5e-08  15.0  0.10005  0  0  0
  6  8e-08  5e-08  15.0  0.2001  0  0  0
  7  8e-08  5e-08  15.0  0.2001  0  0  0
  8  5e-08  5e-08  15.0  0.2001  0  0  0
  9  5e-08  5e-08  15.0  0.2001  0  0  0
  10  1e-08  5e-08  15.0  0.10005  0  0  0
  11  1e-08  5e-08  15.0  0.10005  0  0  0
  12  8e-08  5e-08  15.0  0.2001  0  0  0
  13  8e-08  5e-08  15.0  0.2001  0  0  0
  14  5e-08  5e-08  15.0  0.2001  0  0  0
  15  5e-08  5e-08  15.0  0.2001  0  0  0
  16  8e-08  5e-08  15.0  0.2001  0  0  0
  17  5e-08  5e-08  15.0  0.2001  0  0  0
  18  1e-08  5e-08  15.0  0.2001  0  0  0
  19  1e-08  5e-08  15.0  0.10005  0  0  0
  20  1e-08  5e-08  15.0  0.10005  0  0  0
  21  1e-08  5e-08  15.0  0.10005  0  0  0
  22  1e-08  5e-08  15.0  0.2001  0  0  0
  23  1e-08  5e-08  15.0  0.2001  0  0  0
  24  2e-08  5e-08  15.0  0.2001  0  0  0
  25  8e-08  5e-08  15.0  0.2001  0  0  0
  26  5e-08  5e-08  15.0  0.2001  0  0  0
  27  1e-08  5e-08  15.0  0.2001  0  0  0
  28  1e-08  5e-08  15.0  0.10005  0  0  0
  29  1e-08  5e-08  15.0  0.10005  0  0  0
  30  1e-08  5e-08  15.0  0.10005  0  0  0
  31  1e-08  5e-08  15.0  0.10005  0  0  0
  32  1e-08  5e-08  15.0  0.10005  0  0  0
  33  1e-08  5e-08  15.0  0.10005  0  0  0
  34  1e-08  5e-08  15.0  0.10005  0  0  0
  35  8e-08  5e-08  15.0  0.2001  0  0  0
  36  5e-08  5e-08  15.0  0.2001  0  0  0
  37  5e-08  5e-08  15.0  0.2001  0  0  0
  38  2e-08  5e-08  15.0  0.10005  0  0  0
  39  2e-08  5e-08  15.0  0.10005  0  0  0
  40  1e-08  5e-08  15.0  0.10005  0  0  0
  41  1e-08  5e-08  15.0  0.10005  0  0  0
  42  1e-08  5e-08  15.0  0.10005  0  0  0
  43  1e-08  5e-08  15.0  0.2001  0  0  0
  44  5e-08  5e-08  15.0  0.2001  0  0  0
  45  8e-08  5e-08  15.0  0.2001  0  0  0
  46  5e-08  5e-08  15.0  0.2001  0  0  0
  47  5e-08  5e-08  15.0  0.2001  0  0  0
  48  2e-08  5e-08  15.0  0.10005  0  0  0
  49  2e-08  5e-08  15.0  0.10005  0  0  0
  50  1e-08  5e-08  15.0  0.10005  0  0  0
  51  1e-08  5e-08  15.0  0.10005  0  0  0
  52  2e-08  5e-08  15.0  0.10005  0  0  0
  53  2e-08  5e-08  15.0  0.2001  0  0  0
  54  5e-08  5e-08  15.0  0.2001  0  0  0
  55  5e-08  5e-08  15.0  0.2001  0  0  0
  56  2e-08  5e-08  15.0  0.10005  0  0  0
  57  2e-08  5e-08  15.0  0.10005  0  0  0
  58  1e-08  5e-08  15.0  0.10005  0  0  0
  59  1e-08  5e-08  15.0  0.10005  0  0  0
  60  2e-08  5e-08  15.0  0.2001  0  0  0
  61  5e-08  5e-08  15.0  0.2001  0  0  0
  62  5e-08  5e-08  15.0  0.2001  0  0  0
  63  5e-08  5e-08  15.0  0.2001  0  0  0
  64  2e-08  5e-08  15.0  0.10005  0  0  0
  65  2e-08  5e-08  15.0  0.10005  0  0  0
  66  1e-08  5e-08  15.0  0.10005  0  0  0
  67  1e-08  5e-08  15.0  0.10005  0  0  0
  68  2e-08  5e-08  15.0  0.2001  0  0  0
  69  5e-08  5e-08  15.0  0.2001  0  0  0
  70  5e-08  5e-08  15.0  0.2001  0  0  0
  71  5e-08  5e-08  15.0  0.2001  0  0  0
  72  2e-08  5e-08  15.0  0.10005  0  0  0
  73  2e-08  5e-08  15.0  0.10005  0  0  0
  74  1e-08  5e-08  15.0  0.10005  0  0  0
  75  1e-08  5e-08  15.0  0.10005  0  0  0
  76  2e-08  5e-08  15.0  0.2001  0  0  0
  77  5e-08  5e-08  15.0  0.2001  0  0  0
  78  8e-08  5e-08  15.0  0.2001  0  0  0
  79  1e-08  5e-08  15.0  0.2001  0  0  0
  80  1e-08  5e-08  15.0  0.2001  0  0  0
  81  1e-08  5e-08  15.0  0.10005  0  0  0
  82  1e-08  5e-08  15.0  0.10005  0  0  0
  83  1e-08  5e-08  15.0  0.10005  0  0  0
  84  1e-08  5e-08  15.0  0.10005  0  0  0
  85  2e-08  5e-08  15.0  0.2001  0  0  0
  86  5e-08  5e-08  15.0  0.2001  0  0  0
  87  1e-08  5e-08  15.0  0.2001  0  0  0
  88  1e-08  5e-08  15.0  0.2001  0  0  0
  89  1e-08  5e-08  15.0  0.10005  0  0  0
  90  1e-08  5e-08  15.0  0.10005  0  0  0
  91  1e-08  5e-08  15.0  0.10005  0  0  0
  92  1e-08  5e-08  15.0  0.10005  0  0  0
  93  1e-08  5e-08  15.0  0.10005  0  0  0
  94  1e-08  5e-08  15.0  0.2001  0  0  0
  95  2e-08  5e-08  15.0  0.2001  0  0  0
  96  1e-08  5e-08  15.0  0.10005  0  0  0
  97  1e-08  5e-08  15.0  0.10005  0  0  0
  98  2e-08  5e-08  15.0  0.10005  0  0  0
  99  2e-08  5e-08  15.0  0.10005  0  0  0
  100  2e-08  5e-08  15.0  0.10005  0  0  0
  101  2e-08  5e-08  15.0  0.10005  0  0  0
  102  2e-08  5e-08  15.0  0.10005  0  0  0
  103  1e-08  5e-08  15.0  0.10005  0  0  0
  104  1e-08  5e-08  15.0  0.10005  0  0  0
  105  2e-08  5e-08  15.0  0.2001  0  0  0
  106  5e-08  5e-08  15.0  0.2001  0  0  0
  107  5e-08  5e-08  15.0  0.2001  0  0  0
  108  5e-08  5e-08  15.0  0.2001  0  0  0
  109  5e-08  5e-08  15.0  0.2001  0  0  0
  110  5e-08  5e-08  15.0  0.2001  0  0  0