# File generated by Flopy version 3.3.5 on 03/04/2022 at 11:18:25.
BEGIN options
  TIME_UNITS  days
END options

BEGIN dimensions
  NPER  2
END dimensions

BEGIN perioddata
       1.00000000  2       1.00000000
     365.00000000  730       1.00000000
END perioddata

