# File generated by Flopy version 3.3.5 on 03/04/2022 at 11:18:25.
BEGIN options
END options

BEGIN dimensions
  MAXBOUND  62
END dimensions

BEGIN period  1
  1 1 1      45.00000000
  1 1 46       0.00000000
  1 2 1      45.00000000
  1 2 46       0.00000000
  1 3 1      45.00000000
  1 3 46       0.00000000
  1 4 1      45.00000000
  1 4 46       0.00000000
  1 5 1      45.00000000
  1 5 46       0.00000000
  1 6 1      45.00000000
  1 6 46       0.00000000
  1 7 1      45.00000000
  1 7 46       0.00000000
  1 8 1      45.00000000
  1 8 46       0.00000000
  1 9 1      45.00000000
  1 9 46       0.00000000
  1 10 1      45.00000000
  1 10 46       0.00000000
  1 11 1      45.00000000
  1 11 46       0.00000000
  1 12 1      45.00000000
  1 12 46       0.00000000
  1 13 1      45.00000000
  1 13 46       0.00000000
  1 14 1      45.00000000
  1 14 46       0.00000000
  1 15 1      45.00000000
  1 15 46       0.00000000
  1 16 1      45.00000000
  1 16 46       0.00000000
  1 17 1      45.00000000
  1 17 46       0.00000000
  1 18 1      45.00000000
  1 18 46       0.00000000
  1 19 1      45.00000000
  1 19 46       0.00000000
  1 20 1      45.00000000
  1 20 46       0.00000000
  1 21 1      45.00000000
  1 21 46       0.00000000
  1 22 1      45.00000000
  1 22 46       0.00000000
  1 23 1      45.00000000
  1 23 46       0.00000000
  1 24 1      45.00000000
  1 24 46       0.00000000
  1 25 1      45.00000000
  1 25 46       0.00000000
  1 26 1      45.00000000
  1 26 46       0.00000000
  1 27 1      45.00000000
  1 27 46       0.00000000
  1 28 1      45.00000000
  1 28 46       0.00000000
  1 29 1      45.00000000
  1 29 46       0.00000000
  1 30 1      45.00000000
  1 30 46       0.00000000
  1 31 1      45.00000000
  1 31 46       0.00000000
END period  1

