# File generated by Flopy version 3.3.5 on 03/04/2022 at 11:18:25.
BEGIN options
END options

BEGIN timing
  TDIS6  ex-gwt-mt3dms-p03.tdis
END timing

BEGIN models
  gwf6  gwf-p03-mf6.nam  gwf-p03-mf6
  gwt6  gwt_p03-mf6.nam  gwt_p03-mf6
END models

BEGIN exchanges
  GWF6-GWT6  p03-mf6.gwfgwt  gwf-p03-mf6  gwt_p03-mf6
END exchanges

BEGIN solutiongroup  1
  ims6  gwf-p03-mf6.ims  gwf-p03-mf6
  ims6  gwt_p03-mf6.ims  gwt_p03-mf6
END solutiongroup  1

