# File generated by Flopy version 3.3.5 on 03/04/2022 at 11:18:10.
BEGIN options
  FIRST_ORDER_DECAY
END options

BEGIN griddata
  porosity
    CONSTANT       0.10000000
  decay
    CONSTANT       0.01000000
END griddata

