# File generated by Flopy version 3.3.5 on 03/04/2022 at 11:18:48.
BEGIN options
  LENGTH_UNITS  m
END options

BEGIN dimensions
  NLAY  1
  NROW  1
  NCOL  401
END dimensions

BEGIN griddata
  delr
    CONSTANT       2.50000000
  delc
    CONSTANT       1.00000000
  top
    CONSTANT       1.00000000
  botm
    CONSTANT       0.00000000
END griddata

