# File generated by Flopy version 3.3.5 on 03/04/2022 at 11:14:33.
BEGIN griddata
  strt  LAYERED
    CONSTANT       3.05000000
    CONSTANT       9.14000000
END griddata

