# File generated by Flopy version 3.3.5 on 03/04/2022 at 11:13:46.
BEGIN options
  LENGTH_UNITS  meters
END options

BEGIN dimensions
  NLAY  1
  NROW  1
  NCOL  3
END dimensions

BEGIN griddata
  delr
    CONSTANT       1.00000000
  delc
    CONSTANT       1.00000000
  top
    CONSTANT       0.00000000
  botm
    CONSTANT   -1000.00000000
END griddata

