# File generated by Flopy version 3.3.5 on 03/04/2022 at 11:18:28.
BEGIN griddata
  strt
    INTERNAL  FACTOR  1.0
        97.11404533      96.12409583      95.13414634      94.14419685      93.15424735      92.16429786      91.17434837      90.18439887      89.19444938      88.20449989      87.21455039      86.22460090      85.23465140      84.24470191      83.25475242      82.26480292      81.27485343      80.28490394      79.29495444      78.30500495      77.31505545      76.32510596      75.33515647      74.34520697      73.35525748      72.36530799      71.37535849      70.38540900      69.39545951      68.40551001      67.41556052      66.42561102      65.43566153      64.44571204      63.45576254      62.46581305      61.47586356      60.48591406      59.49596457      58.50601508      57.51606558      56.52611609      55.53616659      54.54621710      53.55626761      52.56631811      51.57636862      50.58641913      49.59646963      48.60652014      47.61657065      46.62662115      45.63667166      44.64672216      43.65677267      42.66682318      41.67687368      40.68692419      39.69697470      38.70702520      37.71707571      36.72712621      35.73717672      34.74722723      33.75727773      32.76732824      31.77737875      30.78742925      29.79747976      28.80753027      27.81758077      26.82763128      25.83768178      24.84773229      23.85778280      22.86783330      21.87788381      20.88793432      19.89798482      18.90803533      17.91808584      16.92813634      15.93818685      14.94823735      13.95828786      12.96833837      11.97838887      10.98843938       9.99848989       9.00854039       8.01859090       7.02864140       6.03869191       5.04874242       4.05879292       3.06884343       2.07889394       1.08894444       0.09899495      -0.89095454
        98.10399482      97.11404533      96.12409583      95.13414634      94.14419685      93.15424735      92.16429786      91.17434837      90.18439887      89.19444938      88.20449989      87.21455039      86.22460090      85.23465140      84.24470191      83.25475242      82.26480292      81.27485343      80.28490394      79.29495444      78.30500495      77.31505545      76.32510596      75.33515647      74.34520697      73.35525748      72.36530799      71.37535849      70.38540900      69.39545951      68.40551001      67.41556052      66.42561102      65.43566153      64.44571204      63.45576254      62.46581305      61.47586356      60.48591406      59.49596457      58.50601508      57.51606558      56.52611609      55.53616659      54.54621710      53.55626761      52.56631811      51.57636862      50.58641913      49.59646963      48.60652014      47.61657065      46.62662115      45.63667166      44.64672216      43.65677267      42.66682318      41.67687368      40.68692419      39.69697470      38.70702520      37.71707571      36.72712621      35.73717672      34.74722723      33.75727773      32.76732824      31.77737875      30.78742925      29.79747976      28.80753027      27.81758077      26.82763128      25.83768178      24.84773229      23.85778280      22.86783330      21.87788381      20.88793432      19.89798482      18.90803533      17.91808584      16.92813634      15.93818685      14.94823735      13.95828786      12.96833837      11.97838887      10.98843938       9.99848989       9.00854039       8.01859090       7.02864140       6.03869191       5.04874242       4.05879292       3.06884343       2.07889394       1.08894444       0.09899495
        99.09394432      98.10399482      97.11404533      96.12409583      95.13414634      94.14419685      93.15424735      92.16429786      91.17434837      90.18439887      89.19444938      88.20449989      87.21455039      86.22460090      85.23465140      84.24470191      83.25475242      82.26480292      81.27485343      80.28490394      79.29495444      78.30500495      77.31505545      76.32510596      75.33515647      74.34520697      73.35525748      72.36530799      71.37535849      70.38540900      69.39545951      68.40551001      67.41556052      66.42561102      65.43566153      64.44571204      63.45576254      62.46581305      61.47586356      60.48591406      59.49596457      58.50601508      57.51606558      56.52611609      55.53616659      54.54621710      53.55626761      52.56631811      51.57636862      50.58641913      49.59646963      48.60652014      47.61657065      46.62662115      45.63667166      44.64672216      43.65677267      42.66682318      41.67687368      40.68692419      39.69697470      38.70702520      37.71707571      36.72712621      35.73717672      34.74722723      33.75727773      32.76732824      31.77737875      30.78742925      29.79747976      28.80753027      27.81758077      26.82763128      25.83768178      24.84773229      23.85778280      22.86783330      21.87788381      20.88793432      19.89798482      18.90803533      17.91808584      16.92813634      15.93818685      14.94823735      13.95828786      12.96833837      11.97838887      10.98843938       9.99848989       9.00854039       8.01859090       7.02864140       6.03869191       5.04874242       4.05879292       3.06884343       2.07889394       1.08894444
       100.08389381      99.09394432      98.10399482      97.11404533      96.12409583      95.13414634      94.14419685      93.15424735      92.16429786      91.17434837      90.18439887      89.19444938      88.20449989      87.21455039      86.22460090      85.23465140      84.24470191      83.25475242      82.26480292      81.27485343      80.28490394      79.29495444      78.30500495      77.31505545      76.32510596      75.33515647      74.34520697      73.35525748      72.36530799      71.37535849      70.38540900      69.39545951      68.40551001      67.41556052      66.42561102      65.43566153      64.44571204      63.45576254      62.46581305      61.47586356      60.48591406      59.49596457      58.50601508      57.51606558      56.52611609      55.53616659      54.54621710      53.55626761      52.56631811      51.57636862      50.58641913      49.59646963      48.60652014      47.61657065      46.62662115      45.63667166      44.64672216      43.65677267      42.66682318      41.67687368      40.68692419      39.69697470      38.70702520      37.71707571      36.72712621      35.73717672      34.74722723      33.75727773      32.76732824      31.77737875      30.78742925      29.79747976      28.80753027      27.81758077      26.82763128      25.83768178      24.84773229      23.85778280      22.86783330      21.87788381      20.88793432      19.89798482      18.90803533      17.91808584      16.92813634      15.93818685      14.94823735      13.95828786      12.96833837      11.97838887      10.98843938       9.99848989       9.00854039       8.01859090       7.02864140       6.03869191       5.04874242       4.05879292       3.06884343       2.07889394
       101.07384330     100.08389381      99.09394432      98.10399482      97.11404533      96.12409583      95.13414634      94.14419685      93.15424735      92.16429786      91.17434837      90.18439887      89.19444938      88.20449989      87.21455039      86.22460090      85.23465140      84.24470191      83.25475242      82.26480292      81.27485343      80.28490394      79.29495444      78.30500495      77.31505545      76.32510596      75.33515647      74.34520697      73.35525748      72.36530799      71.37535849      70.38540900      69.39545951      68.40551001      67.41556052      66.42561102      65.43566153      64.44571204      63.45576254      62.46581305      61.47586356      60.48591406      59.49596457      58.50601508      57.51606558      56.52611609      55.53616659      54.54621710      53.55626761      52.56631811      51.57636862      50.58641913      49.59646963      48.60652014      47.61657065      46.62662115      45.63667166      44.64672216      43.65677267      42.66682318      41.67687368      40.68692419      39.69697470      38.70702520      37.71707571      36.72712621      35.73717672      34.74722723      33.75727773      32.76732824      31.77737875      30.78742925      29.79747976      28.80753027      27.81758077      26.82763128      25.83768178      24.84773229      23.85778280      22.86783330      21.87788381      20.88793432      19.89798482      18.90803533      17.91808584      16.92813634      15.93818685      14.94823735      13.95828786      12.96833837      11.97838887      10.98843938       9.99848989       9.00854039       8.01859090       7.02864140       6.03869191       5.04874242       4.05879292       3.06884343
       102.06379280     101.07384330     100.08389381      99.09394432      98.10399482      97.11404533      96.12409583      95.13414634      94.14419685      93.15424735      92.16429786      91.17434837      90.18439887      89.19444938      88.20449989      87.21455039      86.22460090      85.23465140      84.24470191      83.25475242      82.26480292      81.27485343      80.28490394      79.29495444      78.30500495      77.31505545      76.32510596      75.33515647      74.34520697      73.35525748      72.36530799      71.37535849      70.38540900      69.39545951      68.40551001      67.41556052      66.42561102      65.43566153      64.44571204      63.45576254      62.46581305      61.47586356      60.48591406      59.49596457      58.50601508      57.51606558      56.52611609      55.53616659      54.54621710      53.55626761      52.56631811      51.57636862      50.58641913      49.59646963      48.60652014      47.61657065      46.62662115      45.63667166      44.64672216      43.65677267      42.66682318      41.67687368      40.68692419      39.69697470      38.70702520      37.71707571      36.72712621      35.73717672      34.74722723      33.75727773      32.76732824      31.77737875      30.78742925      29.79747976      28.80753027      27.81758077      26.82763128      25.83768178      24.84773229      23.85778280      22.86783330      21.87788381      20.88793432      19.89798482      18.90803533      17.91808584      16.92813634      15.93818685      14.94823735      13.95828786      12.96833837      11.97838887      10.98843938       9.99848989       9.00854039       8.01859090       7.02864140       6.03869191       5.04874242       4.05879292
       103.05374229     102.06379280     101.07384330     100.08389381      99.09394432      98.10399482      97.11404533      96.12409583      95.13414634      94.14419685      93.15424735      92.16429786      91.17434837      90.18439887      89.19444938      88.20449989      87.21455039      86.22460090      85.23465140      84.24470191      83.25475242      82.26480292      81.27485343      80.28490394      79.29495444      78.30500495      77.31505545      76.32510596      75.33515647      74.34520697      73.35525748      72.36530799      71.37535849      70.38540900      69.39545951      68.40551001      67.41556052      66.42561102      65.43566153      64.44571204      63.45576254      62.46581305      61.47586356      60.48591406      59.49596457      58.50601508      57.51606558      56.52611609      55.53616659      54.54621710      53.55626761      52.56631811      51.57636862      50.58641913      49.59646963      48.60652014      47.61657065      46.62662115      45.63667166      44.64672216      43.65677267      42.66682318      41.67687368      40.68692419      39.69697470      38.70702520      37.71707571      36.72712621      35.73717672      34.74722723      33.75727773      32.76732824      31.77737875      30.78742925      29.79747976      28.80753027      27.81758077      26.82763128      25.83768178      24.84773229      23.85778280      22.86783330      21.87788381      20.88793432      19.89798482      18.90803533      17.91808584      16.92813634      15.93818685      14.94823735      13.95828786      12.96833837      11.97838887      10.98843938       9.99848989       9.00854039       8.01859090       7.02864140       6.03869191       5.04874242
       104.04369178     103.05374229     102.06379280     101.07384330     100.08389381      99.09394432      98.10399482      97.11404533      96.12409583      95.13414634      94.14419685      93.15424735      92.16429786      91.17434837      90.18439887      89.19444938      88.20449989      87.21455039      86.22460090      85.23465140      84.24470191      83.25475242      82.26480292      81.27485343      80.28490394      79.29495444      78.30500495      77.31505545      76.32510596      75.33515647      74.34520697      73.35525748      72.36530799      71.37535849      70.38540900      69.39545951      68.40551001      67.41556052      66.42561102      65.43566153      64.44571204      63.45576254      62.46581305      61.47586356      60.48591406      59.49596457      58.50601508      57.51606558      56.52611609      55.53616659      54.54621710      53.55626761      52.56631811      51.57636862      50.58641913      49.59646963      48.60652014      47.61657065      46.62662115      45.63667166      44.64672216      43.65677267      42.66682318      41.67687368      40.68692419      39.69697470      38.70702520      37.71707571      36.72712621      35.73717672      34.74722723      33.75727773      32.76732824      31.77737875      30.78742925      29.79747976      28.80753027      27.81758077      26.82763128      25.83768178      24.84773229      23.85778280      22.86783330      21.87788381      20.88793432      19.89798482      18.90803533      17.91808584      16.92813634      15.93818685      14.94823735      13.95828786      12.96833837      11.97838887      10.98843938       9.99848989       9.00854039       8.01859090       7.02864140       6.03869191
       105.03364128     104.04369178     103.05374229     102.06379280     101.07384330     100.08389381      99.09394432      98.10399482      97.11404533      96.12409583      95.13414634      94.14419685      93.15424735      92.16429786      91.17434837      90.18439887      89.19444938      88.20449989      87.21455039      86.22460090      85.23465140      84.24470191      83.25475242      82.26480292      81.27485343      80.28490394      79.29495444      78.30500495      77.31505545      76.32510596      75.33515647      74.34520697      73.35525748      72.36530799      71.37535849      70.38540900      69.39545951      68.40551001      67.41556052      66.42561102      65.43566153      64.44571204      63.45576254      62.46581305      61.47586356      60.48591406      59.49596457      58.50601508      57.51606558      56.52611609      55.53616659      54.54621710      53.55626761      52.56631811      51.57636862      50.58641913      49.59646963      48.60652014      47.61657065      46.62662115      45.63667166      44.64672216      43.65677267      42.66682318      41.67687368      40.68692419      39.69697470      38.70702520      37.71707571      36.72712621      35.73717672      34.74722723      33.75727773      32.76732824      31.77737875      30.78742925      29.79747976      28.80753027      27.81758077      26.82763128      25.83768178      24.84773229      23.85778280      22.86783330      21.87788381      20.88793432      19.89798482      18.90803533      17.91808584      16.92813634      15.93818685      14.94823735      13.95828786      12.96833837      11.97838887      10.98843938       9.99848989       9.00854039       8.01859090       7.02864140
       106.02359077     105.03364128     104.04369178     103.05374229     102.06379280     101.07384330     100.08389381      99.09394432      98.10399482      97.11404533      96.12409583      95.13414634      94.14419685      93.15424735      92.16429786      91.17434837      90.18439887      89.19444938      88.20449989      87.21455039      86.22460090      85.23465140      84.24470191      83.25475242      82.26480292      81.27485343      80.28490394      79.29495444      78.30500495      77.31505545      76.32510596      75.33515647      74.34520697      73.35525748      72.36530799      71.37535849      70.38540900      69.39545951      68.40551001      67.41556052      66.42561102      65.43566153      64.44571204      63.45576254      62.46581305      61.47586356      60.48591406      59.49596457      58.50601508      57.51606558      56.52611609      55.53616659      54.54621710      53.55626761      52.56631811      51.57636862      50.58641913      49.59646963      48.60652014      47.61657065      46.62662115      45.63667166      44.64672216      43.65677267      42.66682318      41.67687368      40.68692419      39.69697470      38.70702520      37.71707571      36.72712621      35.73717672      34.74722723      33.75727773      32.76732824      31.77737875      30.78742925      29.79747976      28.80753027      27.81758077      26.82763128      25.83768178      24.84773229      23.85778280      22.86783330      21.87788381      20.88793432      19.89798482      18.90803533      17.91808584      16.92813634      15.93818685      14.94823735      13.95828786      12.96833837      11.97838887      10.98843938       9.99848989       9.00854039       8.01859090
       107.01354026     106.02359077     105.03364128     104.04369178     103.05374229     102.06379280     101.07384330     100.08389381      99.09394432      98.10399482      97.11404533      96.12409583      95.13414634      94.14419685      93.15424735      92.16429786      91.17434837      90.18439887      89.19444938      88.20449989      87.21455039      86.22460090      85.23465140      84.24470191      83.25475242      82.26480292      81.27485343      80.28490394      79.29495444      78.30500495      77.31505545      76.32510596      75.33515647      74.34520697      73.35525748      72.36530799      71.37535849      70.38540900      69.39545951      68.40551001      67.41556052      66.42561102      65.43566153      64.44571204      63.45576254      62.46581305      61.47586356      60.48591406      59.49596457      58.50601508      57.51606558      56.52611609      55.53616659      54.54621710      53.55626761      52.56631811      51.57636862      50.58641913      49.59646963      48.60652014      47.61657065      46.62662115      45.63667166      44.64672216      43.65677267      42.66682318      41.67687368      40.68692419      39.69697470      38.70702520      37.71707571      36.72712621      35.73717672      34.74722723      33.75727773      32.76732824      31.77737875      30.78742925      29.79747976      28.80753027      27.81758077      26.82763128      25.83768178      24.84773229      23.85778280      22.86783330      21.87788381      20.88793432      19.89798482      18.90803533      17.91808584      16.92813634      15.93818685      14.94823735      13.95828786      12.96833837      11.97838887      10.98843938       9.99848989       9.00854039
       108.00348976     107.01354026     106.02359077     105.03364128     104.04369178     103.05374229     102.06379280     101.07384330     100.08389381      99.09394432      98.10399482      97.11404533      96.12409583      95.13414634      94.14419685      93.15424735      92.16429786      91.17434837      90.18439887      89.19444938      88.20449989      87.21455039      86.22460090      85.23465140      84.24470191      83.25475242      82.26480292      81.27485343      80.28490394      79.29495444      78.30500495      77.31505545      76.32510596      75.33515647      74.34520697      73.35525748      72.36530799      71.37535849      70.38540900      69.39545951      68.40551001      67.41556052      66.42561102      65.43566153      64.44571204      63.45576254      62.46581305      61.47586356      60.48591406      59.49596457      58.50601508      57.51606558      56.52611609      55.53616659      54.54621710      53.55626761      52.56631811      51.57636862      50.58641913      49.59646963      48.60652014      47.61657065      46.62662115      45.63667166      44.64672216      43.65677267      42.66682318      41.67687368      40.68692419      39.69697470      38.70702520      37.71707571      36.72712621      35.73717672      34.74722723      33.75727773      32.76732824      31.77737875      30.78742925      29.79747976      28.80753027      27.81758077      26.82763128      25.83768178      24.84773229      23.85778280      22.86783330      21.87788381      20.88793432      19.89798482      18.90803533      17.91808584      16.92813634      15.93818685      14.94823735      13.95828786      12.96833837      11.97838887      10.98843938       9.99848989
       108.99343925     108.00348976     107.01354026     106.02359077     105.03364128     104.04369178     103.05374229     102.06379280     101.07384330     100.08389381      99.09394432      98.10399482      97.11404533      96.12409583      95.13414634      94.14419685      93.15424735      92.16429786      91.17434837      90.18439887      89.19444938      88.20449989      87.21455039      86.22460090      85.23465140      84.24470191      83.25475242      82.26480292      81.27485343      80.28490394      79.29495444      78.30500495      77.31505545      76.32510596      75.33515647      74.34520697      73.35525748      72.36530799      71.37535849      70.38540900      69.39545951      68.40551001      67.41556052      66.42561102      65.43566153      64.44571204      63.45576254      62.46581305      61.47586356      60.48591406      59.49596457      58.50601508      57.51606558      56.52611609      55.53616659      54.54621710      53.55626761      52.56631811      51.57636862      50.58641913      49.59646963      48.60652014      47.61657065      46.62662115      45.63667166      44.64672216      43.65677267      42.66682318      41.67687368      40.68692419      39.69697470      38.70702520      37.71707571      36.72712621      35.73717672      34.74722723      33.75727773      32.76732824      31.77737875      30.78742925      29.79747976      28.80753027      27.81758077      26.82763128      25.83768178      24.84773229      23.85778280      22.86783330      21.87788381      20.88793432      19.89798482      18.90803533      17.91808584      16.92813634      15.93818685      14.94823735      13.95828786      12.96833837      11.97838887      10.98843938
       109.98338875     108.99343925     108.00348976     107.01354026     106.02359077     105.03364128     104.04369178     103.05374229     102.06379280     101.07384330     100.08389381      99.09394432      98.10399482      97.11404533      96.12409583      95.13414634      94.14419685      93.15424735      92.16429786      91.17434837      90.18439887      89.19444938      88.20449989      87.21455039      86.22460090      85.23465140      84.24470191      83.25475242      82.26480292      81.27485343      80.28490394      79.29495444      78.30500495      77.31505545      76.32510596      75.33515647      74.34520697      73.35525748      72.36530799      71.37535849      70.38540900      69.39545951      68.40551001      67.41556052      66.42561102      65.43566153      64.44571204      63.45576254      62.46581305      61.47586356      60.48591406      59.49596457      58.50601508      57.51606558      56.52611609      55.53616659      54.54621710      53.55626761      52.56631811      51.57636862      50.58641913      49.59646963      48.60652014      47.61657065      46.62662115      45.63667166      44.64672216      43.65677267      42.66682318      41.67687368      40.68692419      39.69697470      38.70702520      37.71707571      36.72712621      35.73717672      34.74722723      33.75727773      32.76732824      31.77737875      30.78742925      29.79747976      28.80753027      27.81758077      26.82763128      25.83768178      24.84773229      23.85778280      22.86783330      21.87788381      20.88793432      19.89798482      18.90803533      17.91808584      16.92813634      15.93818685      14.94823735      13.95828786      12.96833837      11.97838887
       110.97333824     109.98338875     108.99343925     108.00348976     107.01354026     106.02359077     105.03364128     104.04369178     103.05374229     102.06379280     101.07384330     100.08389381      99.09394432      98.10399482      97.11404533      96.12409583      95.13414634      94.14419685      93.15424735      92.16429786      91.17434837      90.18439887      89.19444938      88.20449989      87.21455039      86.22460090      85.23465140      84.24470191      83.25475242      82.26480292      81.27485343      80.28490394      79.29495444      78.30500495      77.31505545      76.32510596      75.33515647      74.34520697      73.35525748      72.36530799      71.37535849      70.38540900      69.39545951      68.40551001      67.41556052      66.42561102      65.43566153      64.44571204      63.45576254      62.46581305      61.47586356      60.48591406      59.49596457      58.50601508      57.51606558      56.52611609      55.53616659      54.54621710      53.55626761      52.56631811      51.57636862      50.58641913      49.59646963      48.60652014      47.61657065      46.62662115      45.63667166      44.64672216      43.65677267      42.66682318      41.67687368      40.68692419      39.69697470      38.70702520      37.71707571      36.72712621      35.73717672      34.74722723      33.75727773      32.76732824      31.77737875      30.78742925      29.79747976      28.80753027      27.81758077      26.82763128      25.83768178      24.84773229      23.85778280      22.86783330      21.87788381      20.88793432      19.89798482      18.90803533      17.91808584      16.92813634      15.93818685      14.94823735      13.95828786      12.96833837
       111.96328773     110.97333824     109.98338875     108.99343925     108.00348976     107.01354026     106.02359077     105.03364128     104.04369178     103.05374229     102.06379280     101.07384330     100.08389381      99.09394432      98.10399482      97.11404533      96.12409583      95.13414634      94.14419685      93.15424735      92.16429786      91.17434837      90.18439887      89.19444938      88.20449989      87.21455039      86.22460090      85.23465140      84.24470191      83.25475242      82.26480292      81.27485343      80.28490394      79.29495444      78.30500495      77.31505545      76.32510596      75.33515647      74.34520697      73.35525748      72.36530799      71.37535849      70.38540900      69.39545951      68.40551001      67.41556052      66.42561102      65.43566153      64.44571204      63.45576254      62.46581305      61.47586356      60.48591406      59.49596457      58.50601508      57.51606558      56.52611609      55.53616659      54.54621710      53.55626761      52.56631811      51.57636862      50.58641913      49.59646963      48.60652014      47.61657065      46.62662115      45.63667166      44.64672216      43.65677267      42.66682318      41.67687368      40.68692419      39.69697470      38.70702520      37.71707571      36.72712621      35.73717672      34.74722723      33.75727773      32.76732824      31.77737875      30.78742925      29.79747976      28.80753027      27.81758077      26.82763128      25.83768178      24.84773229      23.85778280      22.86783330      21.87788381      20.88793432      19.89798482      18.90803533      17.91808584      16.92813634      15.93818685      14.94823735      13.95828786
       112.95323723     111.96328773     110.97333824     109.98338875     108.99343925     108.00348976     107.01354026     106.02359077     105.03364128     104.04369178     103.05374229     102.06379280     101.07384330     100.08389381      99.09394432      98.10399482      97.11404533      96.12409583      95.13414634      94.14419685      93.15424735      92.16429786      91.17434837      90.18439887      89.19444938      88.20449989      87.21455039      86.22460090      85.23465140      84.24470191      83.25475242      82.26480292      81.27485343      80.28490394      79.29495444      78.30500495      77.31505545      76.32510596      75.33515647      74.34520697      73.35525748      72.36530799      71.37535849      70.38540900      69.39545951      68.40551001      67.41556052      66.42561102      65.43566153      64.44571204      63.45576254      62.46581305      61.47586356      60.48591406      59.49596457      58.50601508      57.51606558      56.52611609      55.53616659      54.54621710      53.55626761      52.56631811      51.57636862      50.58641913      49.59646963      48.60652014      47.61657065      46.62662115      45.63667166      44.64672216      43.65677267      42.66682318      41.67687368      40.68692419      39.69697470      38.70702520      37.71707571      36.72712621      35.73717672      34.74722723      33.75727773      32.76732824      31.77737875      30.78742925      29.79747976      28.80753027      27.81758077      26.82763128      25.83768178      24.84773229      23.85778280      22.86783330      21.87788381      20.88793432      19.89798482      18.90803533      17.91808584      16.92813634      15.93818685      14.94823735