# File generated by Flopy version 3.3.5 on 03/04/2022 at 11:18:38.
BEGIN options
  TIME_UNITS  days
END options

BEGIN dimensions
  NPER  2
END dimensions

BEGIN perioddata
    1825.00000000  365       1.00000000
    5475.00000000  1095       1.00000000
END perioddata

