# File generated by Flopy version 3.3.5 on 03/04/2022 at 11:18:38.
BEGIN options
  LENGTH_UNITS  meters
END options

BEGIN dimensions
  NLAY  27
  NROW  1
  NCOL  50
END dimensions

BEGIN griddata
  delr
    CONSTANT       5.00000000
  delc
    CONSTANT       1.00000000
  top
    CONSTANT       6.75000000
  botm  LAYERED
    CONSTANT       6.50000000
    CONSTANT       6.25000000
    CONSTANT       6.00000000
    CONSTANT       5.75000000
    CONSTANT       5.50000000
    CONSTANT       5.25000000
    CONSTANT       5.00000000
    CONSTANT       4.75000000
    CONSTANT       4.50000000
    CONSTANT       4.25000000
    CONSTANT       4.00000000
    CONSTANT       3.75000000
    CONSTANT       3.50000000
    CONSTANT       3.25000000
    CONSTANT       3.00000000
    CONSTANT       2.75000000
    CONSTANT       2.50000000
    CONSTANT       2.25000000
    CONSTANT       2.00000000
    CONSTANT       1.75000000
    CONSTANT       1.50000000
    CONSTANT       1.25000000
    CONSTANT       1.00000000
    CONSTANT       0.75000000
    CONSTANT       0.50000000
    CONSTANT       0.25000000
    CONSTANT       0.00000000
  idomain
    CONSTANT  1
END griddata

