# File generated by Flopy version 3.3.5 on 03/04/2022 at 11:18:38.
BEGIN griddata
  strt  LAYERED
    INTERNAL  FACTOR  1.0
           6.66845000       6.66810000       6.66739000       6.66632000       6.66490000       6.66312000       6.66099000       6.65850000       6.65566000       6.65246000       6.64891000       6.64500000       6.64073000       6.63611000       6.63112000       6.62579000       6.62009000       6.61404000       6.60763000       6.60087000       6.59374000       6.58621000       6.57793000       6.56548000       6.52173000    -999.00000000    -999.00000000    -999.00000000    -999.00000000    -999.00000000    -999.00000000    -999.00000000    -999.00000000    -999.00000000    -999.00000000    -999.00000000    -999.00000000    -999.00000000    -999.00000000    -999.00000000    -999.00000000    -999.00000000    -999.00000000    -999.00000000    -999.00000000    -999.00000000    -999.00000000    -999.00000000    -999.00000000    -999.00000000
    INTERNAL  FACTOR  1.0
           6.66829000       6.66794000       6.66723000       6.66616000       6.66474000       6.66297000       6.66083000       6.65835000       6.65550000       6.65230000       6.64875000       6.64484000       6.64057000       6.63595000       6.63097000       6.62563000       6.61994000       6.61388000       6.60747000       6.60071000       6.59358000       6.58605000       6.57777000       6.56533000       6.52156000       6.46176000       6.39766000       6.33024000       6.25907000    -999.00000000    -999.00000000    -999.00000000    -999.00000000    -999.00000000    -999.00000000    -999.00000000    -999.00000000    -999.00000000    -999.00000000    -999.00000000    -999.00000000    -999.00000000    -999.00000000    -999.00000000    -999.00000000    -999.00000000    -999.00000000    -999.00000000    -999.00000000    -999.00000000
    INTERNAL  FACTOR  1.0
           6.66814000       6.66778000       6.66707000       6.66601000       6.66458000       6.66281000       6.66068000       6.65819000       6.65535000       6.65215000       6.64859000       6.64468000       6.64041000       6.63579000       6.63081000       6.62547000       6.61978000       6.61373000       6.60732000       6.60055000       6.59342000       6.58590000       6.57762000       6.56525000       6.52142000       6.46157000       6.39746000       6.33003000       6.25890000       6.18485000       6.10729000       6.02566000    -999.00000000    -999.00000000    -999.00000000    -999.00000000    -999.00000000    -999.00000000    -999.00000000    -999.00000000    -999.00000000    -999.00000000    -999.00000000    -999.00000000    -999.00000000    -999.00000000    -999.00000000    -999.00000000    -999.00000000    -999.00000000
    INTERNAL  FACTOR  1.0
           6.66798000       6.66762000       6.66691000       6.66585000       6.66443000       6.66265000       6.66052000       6.65803000       6.65519000       6.65199000       6.64844000       6.64452000       6.64026000       6.63563000       6.63065000       6.62532000       6.61962000       6.61357000       6.60716000       6.60039000       6.59327000       6.58574000       6.57749000       6.56526000       6.52131000       6.46140000       6.39727000       6.32982000       6.25871000       6.18464000       6.10706000       6.02546000       5.94032000       5.85143000       5.75744000    -999.00000000    -999.00000000    -999.00000000    -999.00000000    -999.00000000    -999.00000000    -999.00000000    -999.00000000    -999.00000000    -999.00000000    -999.00000000    -999.00000000    -999.00000000    -999.00000000    -999.00000000
    INTERNAL  FACTOR  1.0
           6.66782000       6.66747000       6.66676000       6.66569000       6.66427000       6.66250000       6.66037000       6.65788000       6.65503000       6.65184000       6.64828000       6.64437000       6.64010000       6.63548000       6.63050000       6.62516000       6.61946000       6.61341000       6.60700000       6.60024000       6.59311000       6.58559000       6.57736000       6.56534000       6.52125000       6.46124000       6.39708000       6.32962000       6.25853000       6.18444000       6.10684000       6.02525000       5.94010000       5.85117000       5.75727000       5.66090000       5.58450000       5.56712000       5.55307000       5.53884000       5.52424000       5.50927000    -999.00000000    -999.00000000    -999.00000000    -999.00000000    -999.00000000    -999.00000000    -999.00000000    -999.00000000
    INTERNAL  FACTOR  1.0
           6.66767000       6.66731000       6.66660000       6.66554000       6.66412000       6.66234000       6.66021000       6.65772000       6.65488000       6.65168000       6.64813000       6.64421000       6.63995000       6.63532000       6.63034000       6.62500000       6.61931000       6.61326000       6.60685000       6.60008000       6.59295000       6.58544000       6.57725000       6.56550000       6.52122000       6.46108000       6.39691000       6.32943000       6.25835000       6.18425000       6.10663000       6.02505000       5.93988000       5.85092000       5.75705000       5.66063000       5.58427000       5.56696000       5.55291000       5.53868000       5.52408000       5.50911000       5.49377000       5.47807000       5.46199000       5.44554000       5.42872000       5.41153000       5.39394000       5.37500000
    INTERNAL  FACTOR  1.0
           6.66752000       6.66716000       6.66645000       6.66539000       6.66396000       6.66219000       6.66006000       6.65757000       6.65473000       6.65153000       6.64797000       6.64406000       6.63979000       6.63517000       6.63019000       6.62485000       6.61916000       6.61310000       6.60670000       6.59993000       6.59280000       6.58529000       6.57714000       6.56575000       6.52123000       6.46094000       6.39674000       6.32925000       6.25818000       6.18406000       6.10643000       6.02485000       5.93968000       5.85068000       5.75684000       5.66032000       5.58389000       5.56679000       5.55275000       5.53852000       5.52392000       5.50895000       5.49361000       5.47791000       5.46183000       5.44538000       5.42856000       5.41137000       5.39378000       5.37500000
    INTERNAL  FACTOR  1.0
           6.66736000       6.66701000       6.66630000       6.66523000       6.66381000       6.66204000       6.65990000       6.65742000       6.65457000       6.65137000       6.64782000       6.64391000       6.63964000       6.63502000       6.63003000       6.62470000       6.61900000       6.61295000       6.60654000       6.59978000       6.59265000       6.58514000       6.57704000       6.56608000       6.52129000       6.46081000       6.39658000       6.32908000       6.25802000       6.18389000       6.10624000       6.02467000       5.93948000       5.85045000       5.75663000       5.65996000       5.58337000       5.56661000       5.55259000       5.53836000       5.52376000       5.50879000       5.49345000       5.47775000       5.46167000       5.44522000       5.42840000       5.41121000       5.39362000       5.37500000
    INTERNAL  FACTOR  1.0
           6.66721000       6.66686000       6.66615000       6.66508000       6.66366000       6.66188000       6.65975000       6.65727000       6.65442000       6.65122000       6.64767000       6.64376000       6.63949000       6.63486000       6.62988000       6.62455000       6.61885000       6.61280000       6.60639000       6.59962000       6.59250000       6.58499000       6.57695000       6.56649000       6.52138000       6.46068000       6.39643000       6.32892000       6.25787000       6.18372000       6.10605000       6.02449000       5.93929000       5.85024000       5.75643000       5.65954000       5.58269000       5.56642000       5.55243000       5.53820000       5.52360000       5.50864000       5.49329000       5.47759000       5.46151000       5.44506000       5.42824000       5.41105000       5.39346000       5.37500000
    INTERNAL  FACTOR  1.0
           6.66706000       6.66671000       6.66600000       6.66493000       6.66351000       6.66173000       6.65960000       6.65711000       6.65427000       6.65107000       6.64752000       6.64360000       6.63934000       6.63471000       6.62973000       6.62439000       6.61870000       6.61265000       6.60624000       6.59947000       6.59235000       6.58485000       6.57686000       6.56699000       6.52151000       6.46057000       6.39629000       6.32876000       6.25772000       6.18356000       6.10588000       6.02432000       5.93912000       5.85003000       5.75625000       5.65908000       5.58186000       5.56623000       5.55228000       5.53804000       5.52345000       5.50848000       5.49314000       5.47743000       5.46135000       5.44491000       5.42809000       5.41089000       5.39331000       5.37500000
    INTERNAL  FACTOR  1.0
           6.66691000       6.66656000       6.66585000       6.66478000       6.66336000       6.66158000       6.65945000       6.65696000       6.65412000       6.65092000       6.64737000       6.64345000       6.63919000       6.63456000       6.62958000       6.62424000       6.61855000       6.61250000       6.60609000       6.59932000       6.59220000       6.58470000       6.57678000       6.56757000       6.52168000       6.46046000       6.39616000       6.32862000       6.25759000       6.18341000       6.10572000       6.02417000       5.93895000       5.84984000       5.75606000       5.65857000       5.58088000       5.56603000       5.55212000       5.53789000       5.52329000       5.50832000       5.49298000       5.47728000       5.46120000       5.44475000       5.42793000       5.41074000       5.39316000       5.37500000
    INTERNAL  FACTOR  1.0
           6.66676000       6.66641000       6.66570000       6.66463000       6.66321000       6.66143000       6.65930000       6.65681000       6.65397000       6.65077000       6.64722000       6.64331000       6.63904000       6.63441000       6.62943000       6.62409000       6.61840000       6.61235000       6.60594000       6.59917000       6.59205000       6.58456000       6.57670000       6.56825000       6.52189000       6.46036000       6.39603000       6.32848000       6.25746000       6.18327000       6.10557000       6.02402000       5.93879000       5.84966000       5.75589000       5.65801000       5.57975000       5.56584000       5.55196000       5.53773000       5.52313000       5.50817000       5.49283000       5.47712000       5.46104000       5.44459000       5.42777000       5.41058000       5.39301000       5.37500000
    INTERNAL  FACTOR  1.0
           6.66668000       6.66633000       6.66562000       6.66455000       6.66313000       6.66136000       6.65922000       6.65674000       6.65389000       6.65069000       6.64714000       6.64323000       6.63896000       6.63434000       6.62935000       6.62402000       6.61832000       6.61227000       6.60586000       6.59909000       6.59197000       6.58449000       6.57666000       6.56866000       6.52214000       6.46027000       6.39591000       6.32835000       6.25734000       6.18314000       6.10543000       6.02388000       5.93864000       5.84950000       5.75573000       5.65739000       5.57906000       5.56573000       5.55188000       5.53765000       5.52305000       5.50809000       5.49275000       5.47704000       5.46096000       5.44451000       5.42769000       5.41050000       5.39294000       5.37500000
    INTERNAL  FACTOR  1.0
           6.66668000       6.66632000       6.66561000       6.66455000       6.66313000       6.66135000       6.65922000       6.65673000       6.65389000       6.65069000       6.64713000       6.64322000       6.63895000       6.63433000       6.62935000       6.62401000       6.61831000       6.61226000       6.60585000       6.59909000       6.59196000       6.58448000       6.57666000       6.56869000       6.52232000       6.46018000       6.39580000       6.32823000       6.25722000       6.18302000       6.10530000       6.02375000       5.93851000       5.84934000       5.75558000       5.65691000       5.57901000       5.56572000       5.55187000       5.53764000       5.52305000       5.50808000       5.49274000       5.47703000       5.46095000       5.44451000       5.42768000       5.41049000       5.39293000       5.37500000
    INTERNAL  FACTOR  1.0
           6.66667000       6.66632000       6.66561000       6.66454000       6.66312000       6.66134000       6.65921000       6.65672000       6.65388000       6.65068000       6.64713000       6.64322000       6.63895000       6.63432000       6.62934000       6.62400000       6.61831000       6.61226000       6.60585000       6.59908000       6.59196000       6.58448000       6.57665000       6.56871000       6.52243000       6.46010000       6.39570000       6.32812000       6.25712000       6.18291000       6.10517000       6.02362000       5.93838000       5.84920000       5.75544000       5.65655000       5.57898000       5.56572000       5.55187000       5.53764000       5.52304000       5.50807000       5.49273000       5.47703000       5.46095000       5.44450000       5.42768000       5.41049000       5.39292000       5.37500000
    INTERNAL  FACTOR  1.0
           6.66667000       6.66631000       6.66560000       6.66454000       6.66312000       6.66134000       6.65921000       6.65672000       6.65388000       6.65068000       6.64712000       6.64321000       6.63894000       6.63432000       6.62934000       6.62400000       6.61830000       6.61225000       6.60584000       6.59908000       6.59195000       6.58447000       6.57665000       6.56872000       6.52248000       6.46003000       6.39561000       6.32802000       6.25702000       6.18280000       6.10506000       6.02351000       5.93826000       5.84906000       5.75532000       5.65631000       5.57896000       5.56571000       5.55186000       5.53763000       5.52304000       5.50807000       5.49273000       5.47702000       5.46094000       5.44449000       5.42767000       5.41048000       5.39292000       5.37500000
    INTERNAL  FACTOR  1.0
           6.66666000       6.66631000       6.66560000       6.66453000       6.66311000       6.66134000       6.65920000       6.65672000       6.65387000       6.65067000       6.64712000       6.64321000       6.63894000       6.63431000       6.62933000       6.62400000       6.61830000       6.61225000       6.60584000       6.59907000       6.59195000       6.58447000       6.57665000       6.56873000       6.52247000       6.45996000       6.39552000       6.32793000       6.25693000       6.18270000       6.10496000       6.02341000       5.93815000       5.84894000       5.75521000       5.65619000       5.57895000       5.56571000       5.55186000       5.53763000       5.52303000       5.50806000       5.49272000       5.47702000       5.46094000       5.44449000       5.42767000       5.41048000       5.39291000       5.37500000
    INTERNAL  FACTOR  1.0
           6.66666000       6.66631000       6.66560000       6.66453000       6.66311000       6.66133000       6.65920000       6.65671000       6.65387000       6.65067000       6.64712000       6.64320000       6.63894000       6.63431000       6.62933000       6.62399000       6.61830000       6.61225000       6.60584000       6.59907000       6.59194000       6.58446000       6.57665000       6.56872000       6.52239000       6.45989000       6.39544000       6.32785000       6.25685000       6.18262000       6.10486000       6.02332000       5.93805000       5.84883000       5.75511000       5.65620000       5.57896000       5.56570000       5.55186000       5.53763000       5.52303000       5.50806000       5.49272000       5.47701000       5.46094000       5.44449000       5.42767000       5.41047000       5.39291000       5.37500000
    INTERNAL  FACTOR  1.0
           6.66666000       6.66630000       6.66559000       6.66453000       6.66311000       6.66133000       6.65920000       6.65671000       6.65387000       6.65067000       6.64711000       6.64320000       6.63893000       6.63431000       6.62933000       6.62399000       6.61830000       6.61224000       6.60583000       6.59907000       6.59194000       6.58446000       6.57664000       6.56871000       6.52225000       6.45983000       6.39537000       6.32777000       6.25677000       6.18254000       6.10478000       6.02323000       5.93796000       5.84873000       5.75502000       5.65632000       5.57898000       5.56570000       5.55185000       5.53762000       5.52303000       5.50806000       5.49272000       5.47701000       5.46093000       5.44449000       5.42766000       5.41047000       5.39291000       5.37500000
    INTERNAL  FACTOR  1.0
           6.66666000       6.66630000       6.66559000       6.66453000       6.66311000       6.66133000       6.65920000       6.65671000       6.65387000       6.65067000       6.64711000       6.64320000       6.63893000       6.63431000       6.62933000       6.62399000       6.61829000       6.61224000       6.60583000       6.59907000       6.59194000       6.58446000       6.57664000       6.56868000       6.52204000       6.45978000       6.39531000       6.32770000       6.25671000       6.18247000       6.10470000       6.02316000       5.93788000       5.84864000       5.75495000       5.65656000       5.57902000       5.56570000       5.55185000       5.53762000       5.52303000       5.50806000       5.49272000       5.47701000       5.46093000       5.44448000       5.42766000       5.41047000       5.39291000       5.37500000
    INTERNAL  FACTOR  1.0
           6.66665000       6.66630000       6.66559000       6.66452000       6.66310000       6.66133000       6.65919000       6.65671000       6.65386000       6.65066000       6.64711000       6.64320000       6.63893000       6.63430000       6.62932000       6.62399000       6.61829000       6.61224000       6.60583000       6.59906000       6.59194000       6.58446000       6.57663000       6.56835000       6.52176000       6.45973000       6.39525000       6.32764000       6.25665000       6.18240000       6.10464000       6.02309000       5.93781000       5.84857000       5.75489000       5.65693000       5.57957000       5.56572000       5.55185000       5.53762000       5.52302000       5.50805000       5.49271000       5.47701000       5.46093000       5.44448000       5.42766000       5.41047000       5.39291000       5.37500000
    INTERNAL  FACTOR  1.0
           6.66665000       6.66629000       6.66558000       6.66452000       6.66310000       6.66132000       6.65919000       6.65670000       6.65386000       6.65066000       6.64710000       6.64319000       6.63892000       6.63430000       6.62932000       6.62398000       6.61829000       6.61223000       6.60582000       6.59906000       6.59193000       6.58445000       6.57660000       6.56780000       6.52153000       6.45968000       6.39521000       6.32759000       6.25660000       6.18235000       6.10458000       6.02304000       5.93775000       5.84850000       5.75484000       5.65725000       5.58047000       5.56575000       5.55185000       5.53761000       5.52302000       5.50805000       5.49271000       5.47700000       5.46092000       5.44447000       5.42765000       5.41046000       5.39290000       5.37500000
    INTERNAL  FACTOR  1.0
           6.66664000       6.66629000       6.66558000       6.66451000       6.66309000       6.66132000       6.65918000       6.65670000       6.65385000       6.65065000       6.64710000       6.64319000       6.63892000       6.63429000       6.62931000       6.62398000       6.61828000       6.61223000       6.60582000       6.59905000       6.59193000       6.58445000       6.57658000       6.56735000       6.52133000       6.45965000       6.39517000       6.32755000       6.25656000       6.18231000       6.10453000       6.02299000       5.93770000       5.84845000       5.75479000       5.65751000       5.58122000       5.56578000       5.55184000       5.53761000       5.52301000       5.50804000       5.49270000       5.47700000       5.46092000       5.44447000       5.42765000       5.41046000       5.39290000       5.37500000
    INTERNAL  FACTOR  1.0
           6.66664000       6.66629000       6.66558000       6.66451000       6.66309000       6.66131000       6.65918000       6.65669000       6.65385000       6.65065000       6.64710000       6.64318000       6.63892000       6.63429000       6.62931000       6.62397000       6.61828000       6.61223000       6.60582000       6.59905000       6.59192000       6.58444000       6.57656000       6.56700000       6.52117000       6.45962000       6.39513000       6.32752000       6.25653000       6.18227000       6.10450000       6.02295000       5.93766000       5.84840000       5.75476000       5.65773000       5.58181000       5.56580000       5.55184000       5.53761000       5.52301000       5.50804000       5.49270000       5.47699000       5.46092000       5.44447000       5.42765000       5.41045000       5.39289000       5.37500000
    INTERNAL  FACTOR  1.0
           6.66664000       6.66628000       6.66557000       6.66451000       6.66309000       6.66131000       6.65918000       6.65669000       6.65385000       6.65065000       6.64709000       6.64318000       6.63891000       6.63429000       6.62931000       6.62397000       6.61827000       6.61222000       6.60581000       6.59905000       6.59192000       6.58444000       6.57655000       6.56673000       6.52105000       6.45959000       6.39511000       6.32749000       6.25650000       6.18225000       6.10447000       6.02292000       5.93763000       5.84837000       5.75474000       5.65789000       5.58225000       5.56582000       5.55184000       5.53760000       5.52301000       5.50804000       5.49270000       5.47699000       5.46091000       5.44446000       5.42764000       5.41045000       5.39289000       5.37500000
    INTERNAL  FACTOR  1.0
           6.66664000       6.66628000       6.66557000       6.66451000       6.66308000       6.66131000       6.65918000       6.65669000       6.65385000       6.65065000       6.64709000       6.64318000       6.63891000       6.63429000       6.62931000       6.62397000       6.61827000       6.61222000       6.60581000       6.59904000       6.59192000       6.58444000       6.57653000       6.56655000       6.52097000       6.45958000       6.39510000       6.32747000       6.25649000       6.18223000       6.10445000       6.02290000       5.93761000       5.84835000       5.75472000       5.65799000       5.58254000       5.56584000       5.55184000       5.53760000       5.52300000       5.50803000       5.49270000       5.47699000       5.46091000       5.44446000       5.42764000       5.41045000       5.39289000       5.37500000
    INTERNAL  FACTOR  1.0
           6.66664000       6.66628000       6.66557000       6.66450000       6.66308000       6.66131000       6.65918000       6.65669000       6.65384000       6.65065000       6.64709000       6.64318000       6.63891000       6.63429000       6.62930000       6.62397000       6.61827000       6.61222000       6.60581000       6.59904000       6.59192000       6.58444000       6.57653000       6.56646000       6.52094000       6.45957000       6.39509000       6.32747000       6.25648000       6.18222000       6.10444000       6.02289000       5.93760000       5.84834000       5.75472000       5.65805000       5.58269000       5.56585000       5.55184000       5.53760000       5.52300000       5.50803000       5.49270000       5.47699000       5.46091000       5.44446000       5.42764000       5.41045000       5.39289000       5.37500000
END griddata

