# File generated by Flopy version 3.3.5 on 03/04/2022 at 11:18:38.
BEGIN options
  READASARRAYS
  PRINT_FLOWS
END options

BEGIN period  1
  recharge
    CONSTANT  2.73972603E-04
END period  1

