# File generated by Flopy version 3.3.5 on 03/04/2022 at 11:18:38.
BEGIN options
  auxiliary  CONCENTRATION
END options

BEGIN dimensions
  MAXBOUND  22
END dimensions

BEGIN period  1
  6 1 50       5.37500000       0.00000000
  7 1 50       5.37500000       0.00000000
  8 1 50       5.37500000       0.00000000
  9 1 50       5.37500000       0.00000000
  10 1 50       5.37500000       0.00000000
  11 1 50       5.37500000       0.00000000
  12 1 50       5.37500000       0.00000000
  13 1 50       5.37500000       0.00000000
  14 1 50       5.37500000       0.00000000
  15 1 50       5.37500000       0.00000000
  16 1 50       5.37500000       0.00000000
  17 1 50       5.37500000       0.00000000
  18 1 50       5.37500000       0.00000000
  19 1 50       5.37500000       0.00000000
  20 1 50       5.37500000       0.00000000
  21 1 50       5.37500000       0.00000000
  22 1 50       5.37500000       0.00000000
  23 1 50       5.37500000       0.00000000
  24 1 50       5.37500000       0.00000000
  25 1 50       5.37500000       0.00000000
  26 1 50       5.37500000       0.00000000
  27 1 50       5.37500000       0.00000000
END period  1

