# File generated by Flopy version 3.3.5 on 03/04/2022 at 11:18:38.
BEGIN options
  PRINT_FLOWS
END options

BEGIN dimensions
  MAXBOUND  8
END dimensions

BEGIN period  1
  1 1 9       1.00000000
  1 1 10       1.00000000
  1 1 11       1.00000000
  1 1 12       1.00000000
  1 1 13       1.00000000
  1 1 14       1.00000000
  1 1 15       1.00000000
  1 1 16       1.00000000
END period  1

BEGIN period  2
  1 1 9       0.00000000
  1 1 10       0.00000000
  1 1 11       0.00000000
  1 1 12       0.00000000
  1 1 13       0.00000000
  1 1 14       0.00000000
  1 1 15       0.00000000
  1 1 16       0.00000000
END period  2

