# File generated by Flopy version 3.3.5 on 03/04/2022 at 11:18:38.
BEGIN options
  PRINT_OPTION  summary
  COMPLEXITY  complex
END options

BEGIN nonlinear
  OUTER_DVCLOSE  1.00000000E-06
  OUTER_MAXIMUM  100
  UNDER_RELAXATION  dbd
  UNDER_RELAXATION_GAMMA       0.05000000
  UNDER_RELAXATION_THETA       0.70000000
  UNDER_RELAXATION_KAPPA       0.08000000
  UNDER_RELAXATION_MOMENTUM       0.00000000
  BACKTRACKING_NUMBER  20
  BACKTRACKING_TOLERANCE       2.00000000
  BACKTRACKING_REDUCTION_FACTOR       0.20000000
  BACKTRACKING_RESIDUAL_LIMIT  5.00000000E-04
END nonlinear

BEGIN linear
  INNER_MAXIMUM  300
  INNER_DVCLOSE  1.00000000E-06
  inner_rclose  1.00000000E-04  relative_rclose
  LINEAR_ACCELERATION  bicgstab
  RELAXATION_FACTOR       1.00000000
  PRECONDITIONER_LEVELS  8
  PRECONDITIONER_DROP_TOLERANCE       0.00100000
  NUMBER_ORTHOGONALIZATIONS  2
END linear

