# File generated by Flopy version 3.3.5 on 03/04/2022 at 11:18:19.
BEGIN options
  SAVE_FLOWS
END options

BEGIN packages
  DIS6  .\gwf-p01-mf6.dis  dis
  NPF6  .\gwf-p01-mf6.npf  npf
  IC6  .\gwf-p01-mf6.ic  ic
  CHD6  .\gwf-p01-mf6.chd  chd-1
  OC6  .\gwf-p01-mf6.oc  oc
END packages

