# File generated by Flopy version 3.3.5 on 03/04/2022 at 11:18:22.
BEGIN options
  PRINT_OPTION  summary
END options

BEGIN nonlinear
  OUTER_DVCLOSE  1.00000000E-08
END nonlinear

BEGIN linear
  INNER_DVCLOSE  1.00000000E-08
  LINEAR_ACCELERATION  bicgstab
END linear

