# File generated by Flopy version 3.3.5 on 03/04/2022 at 11:14:08.
BEGIN options
  SAVE_FLOWS
  NEWTON
END options

BEGIN packages
  DIS6  .\ex-gwf-lak-p01.dis  dis
  OBS6  .\ex-gwf-lak-p01.gwf.obs  obs_0
  NPF6  .\ex-gwf-lak-p01.npf  npf
  STO6  .\ex-gwf-lak-p01.sto  sto
  IC6  .\ex-gwf-lak-p01.ic  ic
  CHD6  .\ex-gwf-lak-p01.chd  chd_0
  RCH6  .\ex-gwf-lak-p01.rcha  rcha_0
  EVT6  .\ex-gwf-lak-p01.evta  evta_0
  LAK6  .\ex-gwf-lak-p01.lak  lak_0
  OC6  .\ex-gwf-lak-p01.oc  oc
END packages

