# File generated by Flopy version 3.3.5 on 03/04/2022 at 11:14:08.
BEGIN options
  TIME_UNITS  days
END options

BEGIN dimensions
  NPER  1
END dimensions

BEGIN perioddata
    5000.00000000  100       1.02000000
END perioddata

