# File generated by Flopy version 3.3.5 on 03/04/2022 at 11:14:08.
BEGIN options
  DIGITS  10
  PRINT_INPUT
END options

BEGIN continuous  FILEOUT  ex-gwf-lak-p01.lak.obs.csv
  stage  stage  1
END continuous  FILEOUT  ex-gwf-lak-p01.lak.obs.csv

