# File generated by Flopy version 3.3.5 on 03/04/2022 at 11:14:08.
BEGIN options
  PRINT_STAGE
  OBS6  FILEIN  ex-gwf-lak-p01.lak.obs
END options

BEGIN dimensions
  NLAKES  1
  NOUTLETS  0
END dimensions

BEGIN packagedata
  1     110.00000000  57
END packagedata

BEGIN connectiondata
  1  1  1 6 7  horizontal       0.10000000     107.00000000     500.00000000     500.00000000     500.00000000
  1  2  1 7 6  horizontal       0.10000000     107.00000000     500.00000000     500.00000000     500.00000000
  1  3  2 7 7  vertical       0.10000000       0.00000000       0.00000000       0.00000000       0.00000000
  1  4  1 6 8  horizontal       0.10000000     107.00000000     500.00000000     500.00000000     500.00000000
  1  5  2 7 8  vertical       0.10000000       0.00000000       0.00000000       0.00000000       0.00000000
  1  6  1 6 9  horizontal       0.10000000     107.00000000     500.00000000     500.00000000     500.00000000
  1  7  2 7 9  vertical       0.10000000       0.00000000       0.00000000       0.00000000       0.00000000
  1  8  1 6 10  horizontal       0.10000000     107.00000000     500.00000000     500.00000000     500.00000000
  1  9  2 7 10  vertical       0.10000000       0.00000000       0.00000000       0.00000000       0.00000000
  1  10  1 6 11  horizontal       0.10000000     107.00000000     500.00000000     500.00000000     500.00000000
  1  11  1 7 12  horizontal       0.10000000     107.00000000     500.00000000     500.00000000     500.00000000
  1  12  2 7 11  vertical       0.10000000       0.00000000       0.00000000       0.00000000       0.00000000
  1  13  1 8 6  horizontal       0.10000000     107.00000000     500.00000000     500.00000000     500.00000000
  1  14  2 8 7  vertical       0.10000000       0.00000000       0.00000000       0.00000000       0.00000000
  1  15  1 8 12  horizontal       0.10000000     107.00000000     500.00000000     500.00000000     500.00000000
  1  16  2 8 11  vertical       0.10000000       0.00000000       0.00000000       0.00000000       0.00000000
  1  17  1 9 6  horizontal       0.10000000     107.00000000     500.00000000     500.00000000     500.00000000
  1  18  2 9 7  vertical       0.10000000       0.00000000       0.00000000       0.00000000       0.00000000
  1  19  1 9 12  horizontal       0.10000000     107.00000000     500.00000000     500.00000000     500.00000000
  1  20  2 9 11  vertical       0.10000000       0.00000000       0.00000000       0.00000000       0.00000000
  1  21  1 10 6  horizontal       0.10000000     107.00000000     500.00000000     500.00000000     500.00000000
  1  22  2 10 7  vertical       0.10000000       0.00000000       0.00000000       0.00000000       0.00000000
  1  23  1 10 12  horizontal       0.10000000     107.00000000     500.00000000     500.00000000     500.00000000
  1  24  2 10 11  vertical       0.10000000       0.00000000       0.00000000       0.00000000       0.00000000
  1  25  1 11 6  horizontal       0.10000000     107.00000000     500.00000000     500.00000000     500.00000000
  1  26  1 12 7  horizontal       0.10000000     107.00000000     500.00000000     500.00000000     500.00000000
  1  27  2 11 7  vertical       0.10000000       0.00000000       0.00000000       0.00000000       0.00000000
  1  28  1 12 8  horizontal       0.10000000     107.00000000     500.00000000     500.00000000     500.00000000
  1  29  2 11 8  vertical       0.10000000       0.00000000       0.00000000       0.00000000       0.00000000
  1  30  1 12 9  horizontal       0.10000000     107.00000000     500.00000000     500.00000000     500.00000000
  1  31  2 11 9  vertical       0.10000000       0.00000000       0.00000000       0.00000000       0.00000000
  1  32  1 12 10  horizontal       0.10000000     107.00000000     500.00000000     500.00000000     500.00000000
  1  33  2 11 10  vertical       0.10000000       0.00000000       0.00000000       0.00000000       0.00000000
  1  34  1 11 12  horizontal       0.10000000     107.00000000     500.00000000     500.00000000     500.00000000
  1  35  1 12 11  horizontal       0.10000000     107.00000000     500.00000000     500.00000000     500.00000000
  1  36  2 11 11  vertical       0.10000000       0.00000000       0.00000000       0.00000000       0.00000000
  1  37  2 7 8  horizontal       0.10000000      97.00000000     107.00000000     250.00000000     500.00000000
  1  38  2 8 7  horizontal       0.10000000      97.00000000     107.00000000     250.00000000     500.00000000
  1  39  3 8 8  vertical       0.10000000       0.00000000       0.00000000       0.00000000       0.00000000
  1  40  2 7 9  horizontal       0.10000000      97.00000000     107.00000000     250.00000000     500.00000000
  1  41  3 8 9  vertical       0.10000000       0.00000000       0.00000000       0.00000000       0.00000000
  1  42  2 7 10  horizontal       0.10000000      97.00000000     107.00000000     250.00000000     500.00000000
  1  43  2 8 11  horizontal       0.10000000      97.00000000     107.00000000     250.00000000     500.00000000
  1  44  3 8 10  vertical       0.10000000       0.00000000       0.00000000       0.00000000       0.00000000
  1  45  2 9 7  horizontal       0.10000000      97.00000000     107.00000000     250.00000000     500.00000000
  1  46  3 9 8  vertical       0.10000000       0.00000000       0.00000000       0.00000000       0.00000000
  1  47  3 9 9  vertical       0.10000000       0.00000000       0.00000000       0.00000000       0.00000000
  1  48  2 9 11  horizontal       0.10000000      97.00000000     107.00000000     250.00000000     500.00000000
  1  49  3 9 10  vertical       0.10000000       0.00000000       0.00000000       0.00000000       0.00000000
  1  50  2 10 7  horizontal       0.10000000      97.00000000     107.00000000     250.00000000     500.00000000
  1  51  2 11 8  horizontal       0.10000000      97.00000000     107.00000000     250.00000000     500.00000000
  1  52  3 10 8  vertical       0.10000000       0.00000000       0.00000000       0.00000000       0.00000000
  1  53  2 11 9  horizontal       0.10000000      97.00000000     107.00000000     250.00000000     500.00000000
  1  54  3 10 9  vertical       0.10000000       0.00000000       0.00000000       0.00000000       0.00000000
  1  55  2 10 11  horizontal       0.10000000      97.00000000     107.00000000     250.00000000     500.00000000
  1  56  2 11 10  horizontal       0.10000000      97.00000000     107.00000000     250.00000000     500.00000000
  1  57  3 10 10  vertical       0.10000000       0.00000000       0.00000000       0.00000000       0.00000000
END connectiondata

BEGIN period  1
  1  rainfall  0.0116
  1  evaporation  0.0103
END period  1

