# File generated by Flopy version 3.3.5 on 03/04/2022 at 11:14:08.
BEGIN options
  BUDGET  FILEOUT  ex-gwf-lak-p01.cbc
  HEAD  FILEOUT  ex-gwf-lak-p01.hds
END options

BEGIN period  1
  SAVE  HEAD  LAST
  SAVE  BUDGET  LAST
END period  1

