# File generated by Flopy version 3.3.5 on 03/04/2022 at 11:14:08.
BEGIN options
END options

BEGIN timing
  TDIS6  ex-gwf-lak-p01.tdis
END timing

BEGIN models
  gwf6  ex-gwf-lak-p01.nam  ex-gwf-lak-p01
END models

BEGIN exchanges
END exchanges

BEGIN solutiongroup  1
  ims6  ex-gwf-lak-p01.ims  ex-gwf-lak-p01
END solutiongroup  1

