# File generated by Flopy version 3.3.5 on 03/04/2022 at 11:18:10.
BEGIN options
  SORPTION  linear
END options

BEGIN griddata
  porosity
    CONSTANT       0.10000000
  bulk_density
    CONSTANT       1.00000000
  distcoef
    CONSTANT       0.10000000
END griddata

