# SIP package for MODFLOW-2005 generated by Flopy 3.3.5
200 5
1 1e-05 1 0 0
