# DIS package for MODFLOW-2005 generated by Flopy 3.3.5
         1        31        31         2         4         1
  0
CONSTANT    9.000000E+02                           #delr                          
CONSTANT    9.000000E+02                           #delc                          
CONSTANT    0.000000E+00                           #model_top                     
CONSTANT   -2.000000E+01                           #botm layer 1                  
    912.500000           365  1.000000  SS 
   2737.500000          1095  1.000000  SS 
