# Name file for MODFLOW-2005, generated by Flopy version 3.3.5.
#xll:0.0; yll:0.0; rotation:0.0; units:feet; lenuni:1; start_datetime:1-1-1970
LIST               2  p06-mf.list
DIS               11  p06-mf.dis
BAS6              13  p06-mf.bas
LPF               15  p06-mf.lpf
WEL               20  p06-mf.wel
SIP               25  p06-mf.sip
LMT6              30  p06-mf.lmt6
