# Name file for MT3DMS, generated by Flopy version 3.3.5.
LIST              16  p06-mt.list
FTL               10  mt3d_link.ftl 
BTN               31  p06-mt.btn
ADV               32  p06-mt.adv
DSP               33  p06-mt.dsp
SSM               34  p06-mt.ssm
GCG               35  p06-mt.gcg
