# File generated by Flopy version 3.3.5 on 03/04/2022 at 11:17:50.
BEGIN options
END options

BEGIN dimensions
  MAXBOUND  200
END dimensions

BEGIN period  1
  1 1 1       0.01000000
  1 1 51      -0.01000000
  1 2 1       0.01000000
  1 2 51      -0.01000000
  1 3 1       0.01000000
  1 3 51      -0.01000000
  1 4 1       0.01000000
  1 4 51      -0.01000000
  1 5 1       0.01000000
  1 5 51      -0.01000000
  1 6 1       0.01000000
  1 6 51      -0.01000000
  1 7 1       0.01000000
  1 7 51      -0.01000000
  1 8 1       0.01000000
  1 8 51      -0.01000000
  1 9 1       0.01000000
  1 9 51      -0.01000000
  1 10 1       0.01000000
  1 10 51      -0.01000000
  2 1 1       0.01000000
  2 1 51      -0.01000000
  2 2 1       0.01000000
  2 2 51      -0.01000000
  2 3 1       0.01000000
  2 3 51      -0.01000000
  2 4 1       0.01000000
  2 4 51      -0.01000000
  2 5 1       0.01000000
  2 5 51      -0.01000000
  2 6 1       0.01000000
  2 6 51      -0.01000000
  2 7 1       0.01000000
  2 7 51      -0.01000000
  2 8 1       0.01000000
  2 8 51      -0.01000000
  2 9 1       0.01000000
  2 9 51      -0.01000000
  2 10 1       0.01000000
  2 10 51      -0.01000000
  3 1 1       0.01000000
  3 1 51      -0.01000000
  3 2 1       0.01000000
  3 2 51      -0.01000000
  3 3 1       0.01000000
  3 3 51      -0.01000000
  3 4 1       0.01000000
  3 4 51      -0.01000000
  3 5 1       0.01000000
  3 5 51      -0.01000000
  3 6 1       0.01000000
  3 6 51      -0.01000000
  3 7 1       0.01000000
  3 7 51      -0.01000000
  3 8 1       0.01000000
  3 8 51      -0.01000000
  3 9 1       0.01000000
  3 9 51      -0.01000000
  3 10 1       0.01000000
  3 10 51      -0.01000000
  4 1 1       0.01000000
  4 1 51      -0.01000000
  4 2 1       0.01000000
  4 2 51      -0.01000000
  4 3 1       0.01000000
  4 3 51      -0.01000000
  4 4 1       0.01000000
  4 4 51      -0.01000000
  4 5 1       0.01000000
  4 5 51      -0.01000000
  4 6 1       0.01000000
  4 6 51      -0.01000000
  4 7 1       0.01000000
  4 7 51      -0.01000000
  4 8 1       0.01000000
  4 8 51      -0.01000000
  4 9 1       0.01000000
  4 9 51      -0.01000000
  4 10 1       0.01000000
  4 10 51      -0.01000000
  5 1 1       0.01000000
  5 1 51      -0.01000000
  5 2 1       0.01000000
  5 2 51      -0.01000000
  5 3 1       0.01000000
  5 3 51      -0.01000000
  5 4 1       0.01000000
  5 4 51      -0.01000000
  5 5 1       0.01000000
  5 5 51      -0.01000000
  5 6 1       0.01000000
  5 6 51      -0.01000000
  5 7 1       0.01000000
  5 7 51      -0.01000000
  5 8 1       0.01000000
  5 8 51      -0.01000000
  5 9 1       0.01000000
  5 9 51      -0.01000000
  5 10 1       0.01000000
  5 10 51      -0.01000000
  6 1 1       0.01000000
  6 1 51      -0.01000000
  6 2 1       0.01000000
  6 2 51      -0.01000000
  6 3 1       0.01000000
  6 3 51      -0.01000000
  6 4 1       0.01000000
  6 4 51      -0.01000000
  6 5 1       0.01000000
  6 5 51      -0.01000000
  6 6 1       0.01000000
  6 6 51      -0.01000000
  6 7 1       0.01000000
  6 7 51      -0.01000000
  6 8 1       0.01000000
  6 8 51      -0.01000000
  6 9 1       0.01000000
  6 9 51      -0.01000000
  6 10 1       0.01000000
  6 10 51      -0.01000000
  7 1 1       0.01000000
  7 1 51      -0.01000000
  7 2 1       0.01000000
  7 2 51      -0.01000000
  7 3 1       0.01000000
  7 3 51      -0.01000000
  7 4 1       0.01000000
  7 4 51      -0.01000000
  7 5 1       0.01000000
  7 5 51      -0.01000000
  7 6 1       0.01000000
  7 6 51      -0.01000000
  7 7 1       0.01000000
  7 7 51      -0.01000000
  7 8 1       0.01000000
  7 8 51      -0.01000000
  7 9 1       0.01000000
  7 9 51      -0.01000000
  7 10 1       0.01000000
  7 10 51      -0.01000000
  8 1 1       0.01000000
  8 1 51      -0.01000000
  8 2 1       0.01000000
  8 2 51      -0.01000000
  8 3 1       0.01000000
  8 3 51      -0.01000000
  8 4 1       0.01000000
  8 4 51      -0.01000000
  8 5 1       0.01000000
  8 5 51      -0.01000000
  8 6 1       0.01000000
  8 6 51      -0.01000000
  8 7 1       0.01000000
  8 7 51      -0.01000000
  8 8 1       0.01000000
  8 8 51      -0.01000000
  8 9 1       0.01000000
  8 9 51      -0.01000000
  8 10 1       0.01000000
  8 10 51      -0.01000000
  9 1 1       0.01000000
  9 1 51      -0.01000000
  9 2 1       0.01000000
  9 2 51      -0.01000000
  9 3 1       0.01000000
  9 3 51      -0.01000000
  9 4 1       0.01000000
  9 4 51      -0.01000000
  9 5 1       0.01000000
  9 5 51      -0.01000000
  9 6 1       0.01000000
  9 6 51      -0.01000000
  9 7 1       0.01000000
  9 7 51      -0.01000000
  9 8 1       0.01000000
  9 8 51      -0.01000000
  9 9 1       0.01000000
  9 9 51      -0.01000000
  9 10 1       0.01000000
  9 10 51      -0.01000000
  10 1 1       0.01000000
  10 1 51      -0.01000000
  10 2 1       0.01000000
  10 2 51      -0.01000000
  10 3 1       0.01000000
  10 3 51      -0.01000000
  10 4 1       0.01000000
  10 4 51      -0.01000000
  10 5 1       0.01000000
  10 5 51      -0.01000000
  10 6 1       0.01000000
  10 6 51      -0.01000000
  10 7 1       0.01000000
  10 7 51      -0.01000000
  10 8 1       0.01000000
  10 8 51      -0.01000000
  10 9 1       0.01000000
  10 9 51      -0.01000000
  10 10 1       0.01000000
  10 10 51      -0.01000000
END period  1

