# File generated by Flopy version 3.3.5 on 03/04/2022 at 11:17:50.
BEGIN options
  SAVE_FLOWS
END options

BEGIN packages
  DIS6  .\ex-gwf-whirl.dis  dis
  NPF6  .\ex-gwf-whirl.npf  npf
  IC6  .\ex-gwf-whirl.ic  ic
  WEL6  .\ex-gwf-whirl.wel  wel
  OC6  .\ex-gwf-whirl.oc  oc
END packages

