# File generated by Flopy version 3.3.5 on 03/04/2022 at 11:14:06.
BEGIN options
END options

BEGIN timing
  TDIS6  ex-gwf-hanix.tdis
END timing

BEGIN models
  gwf6  ex-gwf-hanix.nam  ex-gwf-hanix
END models

BEGIN exchanges
END exchanges

BEGIN solutiongroup  1
  ims6  ex-gwf-hanix.ims  ex-gwf-hanix
END solutiongroup  1

