# File generated by Flopy version 3.3.5 on 03/04/2022 at 11:13:41.
BEGIN options
  LENGTH_UNITS  meters
END options

BEGIN dimensions
  NLAY  1
  NROW  51
  NCOL  51
END dimensions

BEGIN griddata
  delr
    CONSTANT       1.96078431
  delc
    CONSTANT       1.96078431
  top
    CONSTANT      25.00000000
  botm
    INTERNAL  FACTOR  1.0
         0.00000000       0.00000000       0.00000000       0.00000000       0.00000000       0.00000000       0.00000000       0.00000000       0.00000000       0.00000000       0.00000000       0.00000000       0.00000000       0.00000000       0.00000000       0.00000000       0.00000000       0.00000000       0.00000000       0.00000000       0.00192445       0.07145278       0.12586850       0.16492100       0.18842700       0.19627490       0.18842700       0.16492100       0.12586850       0.07145278       0.00192445       0.00000000       0.00000000       0.00000000       0.00000000       0.00000000       0.00000000       0.00000000       0.00000000       0.00000000       0.00000000       0.00000000       0.00000000       0.00000000       0.00000000       0.00000000       0.00000000       0.00000000       0.00000000       0.00000000       0.00000000
         0.00000000       0.00000000       0.00000000       0.00000000       0.00000000       0.00000000       0.00000000       0.00000000       0.00000000       0.00000000       0.00000000       0.00000000       0.00000000       0.00000000       0.00000000       0.00000000       0.00000000       0.07920820       0.19627490       0.29887420       0.38654330       0.45887100       0.51550690       0.55616880       0.58065020       0.58882470       0.58065020       0.55616880       0.51550690       0.45887100       0.38654330       0.29887420       0.19627490       0.07920820       0.00000000       0.00000000       0.00000000       0.00000000       0.00000000       0.00000000       0.00000000       0.00000000       0.00000000       0.00000000       0.00000000       0.00000000       0.00000000       0.00000000       0.00000000       0.00000000       0.00000000
         0.00000000       0.00000000       0.00000000       0.00000000       0.00000000       0.00000000       0.00000000       0.00000000       0.00000000       0.00000000       0.00000000       0.00000000       0.00000000       0.00000000       0.00192445       0.16492100       0.31475510       0.45080760       0.57248260       0.67921770       0.77049490       0.84585260       0.90489520       0.94730400       0.97284480       0.98137450       0.97284480       0.94730400       0.90489520       0.84585260       0.77049490       0.67921770       0.57248260       0.45080760       0.31475510       0.16492100       0.00192445       0.00000000       0.00000000       0.00000000       0.00000000       0.00000000       0.00000000       0.00000000       0.00000000       0.00000000       0.00000000       0.00000000       0.00000000       0.00000000       0.00000000
         0.00000000       0.00000000       0.00000000       0.00000000       0.00000000       0.00000000       0.00000000       0.00000000       0.00000000       0.00000000       0.00000000       0.00000000       0.00000000       0.17275010       0.35457150       0.52362540       0.67921770       0.82066470       0.94730400       1.05850700       1.15369300       1.23234000       1.29400000       1.33831100       1.36500700       1.37392400       1.36500700       1.33831100       1.29400000       1.23234000       1.15369300       1.05850700       0.94730400       0.82066470       0.67921770       0.52362540       0.35457150       0.17275010       0.00000000       0.00000000       0.00000000       0.00000000       0.00000000       0.00000000       0.00000000       0.00000000       0.00000000       0.00000000       0.00000000       0.00000000       0.00000000
         0.00000000       0.00000000       0.00000000       0.00000000       0.00000000       0.00000000       0.00000000       0.00000000       0.00000000       0.00000000       0.00000000       0.10251090       0.31475510       0.51550690       0.70402270       0.87954440       1.04130900       1.18856000       1.32056000       1.43660300       1.53603400       1.61826400       1.68278100       1.72917300       1.75713300       1.76647400       1.75713300       1.72917300       1.68278100       1.61826400       1.53603400       1.43660300       1.32056000       1.18856000       1.04130900       0.87954440       0.70402270       0.51550690       0.31475510       0.10251090       0.00000000       0.00000000       0.00000000       0.00000000       0.00000000       0.00000000       0.00000000       0.00000000       0.00000000       0.00000000       0.00000000
         0.00000000       0.00000000       0.00000000       0.00000000       0.00000000       0.00000000       0.00000000       0.00000000       0.00000000       0.00000000       0.19627490       0.42665800       0.64624660       0.85426390       1.04990400       1.23234000       1.40073100       1.55423800       1.69203900       1.81333900       1.91739800       2.00354400       2.07119200       2.11986700       2.14921600       2.15902400       2.14921600       2.11986700       2.07119200       2.00354400       1.91739800       1.81333900       1.69203900       1.55423800       1.40073100       1.23234000       1.04990400       0.85426390       0.64624660       0.42665800       0.19627490       0.00000000       0.00000000       0.00000000       0.00000000       0.00000000       0.00000000       0.00000000       0.00000000       0.00000000       0.00000000
         0.00000000       0.00000000       0.00000000       0.00000000       0.00000000       0.00000000       0.00000000       0.00000000       0.00192445       0.25928520       0.50739540       0.74551190       0.97284480       1.18856000       1.39178600       1.58161800       1.75713300       1.91739800       2.06149200       2.18852100       2.29764000       2.38808200       2.45917400       2.51036600       2.54125100       2.55157400       2.54125100       2.51036600       2.45917400       2.38808200       2.29764000       2.18852100       2.06149200       1.91739800       1.75713300       1.58161800       1.39178600       1.18856000       0.97284480       0.74551190       0.50739540       0.25928520       0.00192445       0.00000000       0.00000000       0.00000000       0.00000000       0.00000000       0.00000000       0.00000000       0.00000000
         0.00000000       0.00000000       0.00000000       0.00000000       0.00000000       0.00000000       0.00000000       0.01733338       0.29094350       0.55616880       0.81228410       1.05850700       1.29400000       1.51786900       1.72917300       1.92692500       2.11010800       2.27768600       2.42862400       2.56191100       2.67658400       2.77175900       2.84665800       2.90064100       2.93322800       2.94412400       2.93322800       2.90064100       2.84665800       2.77175900       2.67658400       2.56191100       2.42862400       2.27768600       2.11010800       1.92692500       1.72917300       1.51786900       1.29400000       1.05850700       0.81228410       0.55616880       0.29094350       0.01733338       0.00000000       0.00000000       0.00000000       0.00000000       0.00000000       0.00000000       0.00000000
         0.00000000       0.00000000       0.00000000       0.00000000       0.00000000       0.00000000       0.00192445       0.29094350       0.57248260       0.84585260       1.11030000       1.36500700       1.60908700       1.84158800       2.06149200       2.26772800       2.45917400       2.63467900       2.79308000       2.93322800       3.05402000       3.15443200       3.23356000       3.29065000       3.32513800       3.33667300       3.32513800       3.29065000       3.23356000       3.15443200       3.05402000       2.93322800       2.79308000       2.63467900       2.45917400       2.26772800       2.06149200       1.84158800       1.60908700       1.36500700       1.11030000       0.84585260       0.57248260       0.29094350       0.00192445       0.00000000       0.00000000       0.00000000       0.00000000       0.00000000       0.00000000
         0.00000000       0.00000000       0.00000000       0.00000000       0.00000000       0.00000000       0.25928520       0.55616880       0.84585260       1.12763200       1.40073100       1.66429700       1.91739800       2.15902400       2.38808200       2.60340500       2.80376400       2.98787600       3.15443200       3.30212600       3.42968600       3.53592300       3.61977200       3.68034500       3.71696800       3.72922300       3.71696800       3.68034500       3.61977200       3.53592300       3.42968600       3.30212600       3.15443200       2.98787600       2.80376400       2.60340500       2.38808200       2.15902400       1.91739800       1.66429700       1.40073100       1.12763200       0.84585260       0.55616880       0.25928520       0.00000000       0.00000000       0.00000000       0.00000000       0.00000000       0.00000000
         0.00000000       0.00000000       0.00000000       0.00000000       0.00000000       0.19627490       0.50739540       0.81228410       1.11030000       1.40073100       1.68278100       1.95557100       2.21812900       2.46938400       2.70817200       2.93322800       3.14320300       3.33667300       3.51216500       3.66818400       3.80326300       3.91600800       4.00516300       4.06966400       4.10870300       4.12177300       4.10870300       4.06966400       4.00516300       3.91600800       3.80326300       3.66818400       3.51216500       3.33667300       3.14320300       2.93322800       2.70817200       2.46938400       2.21812900       1.95557100       1.68278100       1.40073100       1.11030000       0.81228410       0.50739540       0.19627490       0.00000000       0.00000000       0.00000000       0.00000000       0.00000000
         0.00000000       0.00000000       0.00000000       0.00000000       0.10251090       0.42665800       0.74551190       1.05850700       1.36500700       1.66429700       1.95557100       2.23793000       2.51036600       2.77175900       3.02086900       3.25633800       3.47668900       3.68034500       3.86564400       4.03087900       4.17434800       4.29440900       4.38956200       4.45852800       4.50032100       4.51432300       4.50032100       4.45852800       4.38956200       4.29440900       4.17434800       4.03087900       3.86564400       3.68034500       3.47668900       3.25633800       3.02086900       2.77175900       2.51036600       2.23793000       1.95557100       1.66429700       1.36500700       1.05850700       0.74551190       0.42665800       0.10251090       0.00000000       0.00000000       0.00000000       0.00000000
         0.00000000       0.00000000       0.00000000       0.00000000       0.31475510       0.64624660       0.97284480       1.29400000       1.60908700       1.91739800       2.21812900       2.51036600       2.79308000       3.06510500       3.32513800       3.57172400       3.80326300       4.01800700       4.21409200       4.38956200       4.54243400       4.67076500       4.77275200       4.84683400       4.89179700       4.90687300       4.89179700       4.84683400       4.77275200       4.67076500       4.54243400       4.38956200       4.21409200       4.01800700       3.80326300       3.57172400       3.32513800       3.06510500       2.79308000       2.51036600       2.21812900       1.91739800       1.60908700       1.29400000       0.97284480       0.64624660       0.31475510       0.00000000       0.00000000       0.00000000       0.00000000
         0.00000000       0.00000000       0.00000000       0.17275010       0.51550690       0.85426390       1.18856000       1.51786900       1.84158800       2.15902400       2.46938400       2.77175900       3.06510500       3.34822900       3.61977200       3.87819600       4.12177300       4.34858600       4.55654400       4.74341200       4.90687300       5.04461400       5.15444700       5.23444600       5.28309400       5.29942200       5.28309400       5.23444600       5.15444700       5.04461400       4.90687300       4.74341200       4.55654400       4.34858600       4.12177300       3.87819600       3.61977200       3.34822900       3.06510500       2.77175900       2.46938400       2.15902400       1.84158800       1.51786900       1.18856000       0.85426390       0.51550690       0.17275010       0.00000000       0.00000000       0.00000000
         0.00000000       0.00000000       0.00192445       0.35457150       0.70402270       1.04990400       1.39178600       1.72917300       2.06149200       2.38808200       2.70817200       3.02086900       3.32513800       3.61977200       3.90337800       4.17434800       4.43083900       4.67076500       4.89179700       5.09138500       5.26682300       5.41534200       5.53426400       5.62118000       5.67416600       5.69197200       5.67416600       5.62118000       5.53426400       5.41534200       5.26682300       5.09138500       4.89179700       4.67076500       4.43083900       4.17434800       3.90337800       3.61977200       3.32513800       3.02086900       2.70817200       2.38808200       2.06149200       1.72917300       1.39178600       1.04990400       0.70402270       0.35457150       0.00192445       0.00000000       0.00000000
         0.00000000       0.00000000       0.16492100       0.52362540       0.87954440       1.23234000       1.58161800       1.92692500       2.26772800       2.60340500       2.93322800       3.25633800       3.57172400       3.87819600       4.17434800       4.45852800       4.72880300       4.98293000       5.21833900       5.43214200       5.62118000       5.78212900       5.91168000       6.00678200       6.06494300       6.08452200       6.06494300       6.00678200       5.91168000       5.78212900       5.62118000       5.43214200       5.21833900       4.98293000       4.72880300       4.45852800       4.17434800       3.87819600       3.57172400       3.25633800       2.93322800       2.60340500       2.26772800       1.92692500       1.58161800       1.23234000       0.87954440       0.52362540       0.16492100       0.00000000       0.00000000
         0.00000000       0.00000000       0.31475510       0.67921770       1.04130900       1.40073100       1.75713300       2.11010800       2.45917400       2.80376400       3.14320300       3.47668900       3.80326300       4.12177300       4.43083900       4.72880300       5.01367700       5.28309400       5.53426400       5.76394500       5.96847200       6.14385300       6.28596500       6.39089000       6.45533000       6.47707200       6.45533000       6.39089000       6.28596500       6.14385300       5.96847200       5.76394500       5.53426400       5.28309400       5.01367700       4.72880300       4.43083900       4.12177300       3.80326300       3.47668900       3.14320300       2.80376400       2.45917400       2.11010800       1.75713300       1.40073100       1.04130900       0.67921770       0.31475510       0.00000000       0.00000000
         0.00000000       0.07920820       0.45080760       0.82066470       1.18856000       1.55423800       1.91739800       2.27768600       2.63467900       2.98787600       3.33667300       3.68034500       4.01800700       4.34858600       4.67076500       4.98293000       5.28309400       5.56882600       5.83715800       6.08452200       6.30671300       6.49894800       6.65607300       6.77297200       6.84518200       6.86962200       6.84518200       6.77297200       6.65607300       6.49894800       6.30671300       6.08452200       5.83715800       5.56882600       5.28309400       4.98293000       4.67076500       4.34858600       4.01800700       3.68034500       3.33667300       2.98787600       2.63467900       2.27768600       1.91739800       1.55423800       1.18856000       0.82066470       0.45080760       0.07920820       0.00000000
         0.00000000       0.19627490       0.57248260       0.94730400       1.32056000       1.69203900       2.06149200       2.42862400       2.79308000       3.15443200       3.51216500       3.86564400       4.21409200       4.55654400       4.89179700       5.21833900       5.53426400       5.83715800       6.12397500       6.39089000       6.63317900       6.84518200       7.02045000       7.15221500       7.23427400       7.26217100       7.23427400       7.15221500       7.02045000       6.84518200       6.63317900       6.39089000       6.12397500       5.83715800       5.53426400       5.21833900       4.89179700       4.55654400       4.21409200       3.86564400       3.51216500       3.15443200       2.79308000       2.42862400       2.06149200       1.69203900       1.32056000       0.94730400       0.57248260       0.19627490       0.00000000
         0.00000000       0.29887420       0.67921770       1.05850700       1.43660300       1.81333900       2.18852100       2.56191100       2.93322800       3.30212600       3.66818400       4.03087900       4.38956200       4.74341200       5.09138500       5.43214200       5.76394500       6.08452200       6.39089000       6.67912400       6.94410800       7.17930300       7.37671600       7.52731700       7.62223300       7.65472100       7.62223300       7.52731700       7.37671600       7.17930300       6.94410800       6.67912400       6.39089000       6.08452200       5.76394500       5.43214200       5.09138500       4.74341200       4.38956200       4.03087900       3.66818400       3.30212600       2.93322800       2.56191100       2.18852100       1.81333900       1.43660300       1.05850700       0.67921770       0.29887420       0.00000000
         0.00192445       0.38654330       0.77049490       1.15369300       1.53603400       1.91739800       2.29764000       2.67658400       3.05402000       3.42968600       3.80326300       4.17434800       4.54243400       4.90687300       5.26682300       5.62118000       5.96847200       6.30671300       6.63317900       6.94410800       7.23427400       7.49647500       7.72108100       7.89607500       8.00840100       8.04727100       8.00840100       7.89607500       7.72108100       7.49647500       7.23427400       6.94410800       6.63317900       6.30671300       5.96847200       5.62118000       5.26682300       4.90687300       4.54243400       4.17434800       3.80326300       3.42968600       3.05402000       2.67658400       2.29764000       1.91739800       1.53603400       1.15369300       0.77049490       0.38654330       0.00192445
         0.07145278       0.45887100       0.84585260       1.23234000       1.61826400       2.00354400       2.38808200       2.77175900       3.15443200       3.53592300       3.91600800       4.29440900       4.67076500       5.04461400       5.41534200       5.78212900       6.14385300       6.49894800       6.84518200       7.17930300       7.49647500       7.78942300       8.04727100       8.25448400       8.39149600       8.43982100       8.39149600       8.25448400       8.04727100       7.78942300       7.49647500       7.17930300       6.84518200       6.49894800       6.14385300       5.78212900       5.41534200       5.04461400       4.67076500       4.29440900       3.91600800       3.53592300       3.15443200       2.77175900       2.38808200       2.00354400       1.61826400       1.23234000       0.84585260       0.45887100       0.07145278
         0.12586850       0.51550690       0.90489520       1.29400000       1.68278100       2.07119200       2.45917400       2.84665800       3.23356000       3.61977200       4.00516300       4.38956200       4.77275200       5.15444700       5.53426400       5.91168000       6.28596500       6.65607300       7.02045000       7.37671600       7.72108100       8.04727100       8.34457200       8.59466200       8.76866800       8.83237100       8.76866800       8.59466200       8.34457200       8.04727100       7.72108100       7.37671600       7.02045000       6.65607300       6.28596500       5.91168000       5.53426400       5.15444700       4.77275200       4.38956200       4.00516300       3.61977200       3.23356000       2.84665800       2.45917400       2.07119200       1.68278100       1.29400000       0.90489520       0.51550690       0.12586850
         0.16492100       0.55616880       0.94730400       1.33831100       1.72917300       2.11986700       2.51036600       2.90064100       3.29065000       3.68034500       4.06966400       4.45852800       4.84683400       5.23444600       5.62118000       6.00678200       6.39089000       6.77297200       7.15221500       7.52731700       7.89607500       8.25448400       8.59466200       8.89972100       9.13225200       9.22492000       9.13225200       8.89972100       8.59466200       8.25448400       7.89607500       7.52731700       7.15221500       6.77297200       6.39089000       6.00678200       5.62118000       5.23444600       4.84683400       4.45852800       4.06966400       3.68034500       3.29065000       2.90064100       2.51036600       2.11986700       1.72917300       1.33831100       0.94730400       0.55616880       0.16492100
         0.18842700       0.58065020       0.97284480       1.36500700       1.75713300       2.14921600       2.54125100       2.93322800       3.32513800       3.71696800       4.10870300       4.50032100       4.89179700       5.28309400       5.67416600       6.06494300       6.45533000       6.84518200       7.23427400       7.62223300       8.00840100       8.39149600       8.76866800       9.13225200       9.45487100       9.61747000       9.45487100       9.13225200       8.76866800       8.39149600       8.00840100       7.62223300       7.23427400       6.84518200       6.45533000       6.06494300       5.67416600       5.28309400       4.89179700       4.50032100       4.10870300       3.71696800       3.32513800       2.93322800       2.54125100       2.14921600       1.75713300       1.36500700       0.97284480       0.58065020       0.18842700
         0.19627490       0.58882470       0.98137450       1.37392400       1.76647400       2.15902400       2.55157400       2.94412400       3.33667300       3.72922300       4.12177300       4.51432300       4.90687300       5.29942200       5.69197200       6.08452200       6.47707200       6.86962200       7.26217100       7.65472100       8.04727100       8.43982100       8.83237100       9.22492000       9.61747000       9.99000000       9.61747000       9.22492000       8.83237100       8.43982100       8.04727100       7.65472100       7.26217100       6.86962200       6.47707200       6.08452200       5.69197200       5.29942200       4.90687300       4.51432300       4.12177300       3.72922300       3.33667300       2.94412400       2.55157400       2.15902400       1.76647400       1.37392400       0.98137450       0.58882470       0.19627490
         0.18842700       0.58065020       0.97284480       1.36500700       1.75713300       2.14921600       2.54125100       2.93322800       3.32513800       3.71696800       4.10870300       4.50032100       4.89179700       5.28309400       5.67416600       6.06494300       6.45533000       6.84518200       7.23427400       7.62223300       8.00840100       8.39149600       8.76866800       9.13225200       9.45487100       9.61747000       9.45487100       9.13225200       8.76866800       8.39149600       8.00840100       7.62223300       7.23427400       6.84518200       6.45533000       6.06494300       5.67416600       5.28309400       4.89179700       4.50032100       4.10870300       3.71696800       3.32513800       2.93322800       2.54125100       2.14921600       1.75713300       1.36500700       0.97284480       0.58065020       0.18842700
         0.16492100       0.55616880       0.94730400       1.33831100       1.72917300       2.11986700       2.51036600       2.90064100       3.29065000       3.68034500       4.06966400       4.45852800       4.84683400       5.23444600       5.62118000       6.00678200       6.39089000       6.77297200       7.15221500       7.52731700       7.89607500       8.25448400       8.59466200       8.89972100       9.13225200       9.22492000       9.13225200       8.89972100       8.59466200       8.25448400       7.89607500       7.52731700       7.15221500       6.77297200       6.39089000       6.00678200       5.62118000       5.23444600       4.84683400       4.45852800       4.06966400       3.68034500       3.29065000       2.90064100       2.51036600       2.11986700       1.72917300       1.33831100       0.94730400       0.55616880       0.16492100
         0.12586850       0.51550690       0.90489520       1.29400000       1.68278100       2.07119200       2.45917400       2.84665800       3.23356000       3.61977200       4.00516300       4.38956200       4.77275200       5.15444700       5.53426400       5.91168000       6.28596500       6.65607300       7.02045000       7.37671600       7.72108100       8.04727100       8.34457200       8.59466200       8.76866800       8.83237100       8.76866800       8.59466200       8.34457200       8.04727100       7.72108100       7.37671600       7.02045000       6.65607300       6.28596500       5.91168000       5.53426400       5.15444700       4.77275200       4.38956200       4.00516300       3.61977200       3.23356000       2.84665800       2.45917400       2.07119200       1.68278100       1.29400000       0.90489520       0.51550690       0.12586850
         0.07145278       0.45887100       0.84585260       1.23234000       1.61826400       2.00354400       2.38808200       2.77175900       3.15443200       3.53592300       3.91600800       4.29440900       4.67076500       5.04461400       5.41534200       5.78212900       6.14385300       6.49894800       6.84518200       7.17930300       7.49647500       7.78942300       8.04727100       8.25448400       8.39149600       8.43982100       8.39149600       8.25448400       8.04727100       7.78942300       7.49647500       7.17930300       6.84518200       6.49894800       6.14385300       5.78212900       5.41534200       5.04461400       4.67076500       4.29440900       3.91600800       3.53592300       3.15443200       2.77175900       2.38808200       2.00354400       1.61826400       1.23234000       0.84585260       0.45887100       0.07145278
         0.00192445       0.38654330       0.77049490       1.15369300       1.53603400       1.91739800       2.29764000       2.67658400       3.05402000       3.42968600       3.80326300       4.17434800       4.54243400       4.90687300       5.26682300       5.62118000       5.96847200       6.30671300       6.63317900       6.94410800       7.23427400       7.49647500       7.72108100       7.89607500       8.00840100       8.04727100       8.00840100       7.89607500       7.72108100       7.49647500       7.23427400       6.94410800       6.63317900       6.30671300       5.96847200       5.62118000       5.26682300       4.90687300       4.54243400       4.17434800       3.80326300       3.42968600       3.05402000       2.67658400       2.29764000       1.91739800       1.53603400       1.15369300       0.77049490       0.38654330       0.00192445
         0.00000000       0.29887420       0.67921770       1.05850700       1.43660300       1.81333900       2.18852100       2.56191100       2.93322800       3.30212600       3.66818400       4.03087900       4.38956200       4.74341200       5.09138500       5.43214200       5.76394500       6.08452200       6.39089000       6.67912400       6.94410800       7.17930300       7.37671600       7.52731700       7.62223300       7.65472100       7.62223300       7.52731700       7.37671600       7.17930300       6.94410800       6.67912400       6.39089000       6.08452200       5.76394500       5.43214200       5.09138500       4.74341200       4.38956200       4.03087900       3.66818400       3.30212600       2.93322800       2.56191100       2.18852100       1.81333900       1.43660300       1.05850700       0.67921770       0.29887420       0.00000000
         0.00000000       0.19627490       0.57248260       0.94730400       1.32056000       1.69203900       2.06149200       2.42862400       2.79308000       3.15443200       3.51216500       3.86564400       4.21409200       4.55654400       4.89179700       5.21833900       5.53426400       5.83715800       6.12397500       6.39089000       6.63317900       6.84518200       7.02045000       7.15221500       7.23427400       7.26217100       7.23427400       7.15221500       7.02045000       6.84518200       6.63317900       6.39089000       6.12397500       5.83715800       5.53426400       5.21833900       4.89179700       4.55654400       4.21409200       3.86564400       3.51216500       3.15443200       2.79308000       2.42862400       2.06149200       1.69203900       1.32056000       0.94730400       0.57248260       0.19627490       0.00000000
         0.00000000       0.07920820       0.45080760       0.82066470       1.18856000       1.55423800       1.91739800       2.27768600       2.63467900       2.98787600       3.33667300       3.68034500       4.01800700       4.34858600       4.67076500       4.98293000       5.28309400       5.56882600       5.83715800       6.08452200       6.30671300       6.49894800       6.65607300       6.77297200       6.84518200       6.86962200       6.84518200       6.77297200       6.65607300       6.49894800       6.30671300       6.08452200       5.83715800       5.56882600       5.28309400       4.98293000       4.67076500       4.34858600       4.01800700       3.68034500       3.33667300       2.98787600       2.63467900       2.27768600       1.91739800       1.55423800       1.18856000       0.82066470       0.45080760       0.07920820       0.00000000