# File generated by Flopy version 3.3.5 on 03/04/2022 at 11:13:41.
BEGIN options
  BUDGET  FILEOUT  ex-gwf-bump.cbc
  HEAD  FILEOUT  ex-gwf-bump.hds
END options

BEGIN period  1
  SAVE  HEAD  ALL
  SAVE  BUDGET  ALL
END period  1

