# File generated by Flopy version 3.3.5 on 03/04/2022 at 11:18:01.
BEGIN options
  TIME_UNITS  seconds
END options

BEGIN dimensions
  NPER  1
END dimensions

BEGIN perioddata
  1.29600000E+07  33       1.00000000
END perioddata

