# File generated by Flopy version 3.3.5 on 03/04/2022 at 11:18:01.
BEGIN options
  SORPTION  linear
END options

BEGIN griddata
  porosity
    CONSTANT       0.26000000
  bulk_density
    CONSTANT       1.70000000
  distcoef
    CONSTANT       0.17600000
END griddata

