# File generated by Flopy version 3.3.5 on 03/04/2022 at 11:13:41.
BEGIN griddata
  strt
    CONSTANT       7.50000000
END griddata

