# File generated by Flopy version 3.3.5 on 03/04/2022 at 11:13:41.
BEGIN options
END options

BEGIN dimensions
  MAXBOUND  102
END dimensions

BEGIN period  1
  1 1 1       7.50000000
  1 2 1       7.50000000
  1 3 1       7.50000000
  1 4 1       7.50000000
  1 5 1       7.50000000
  1 6 1       7.50000000
  1 7 1       7.50000000
  1 8 1       7.50000000
  1 9 1       7.50000000
  1 10 1       7.50000000
  1 11 1       7.50000000
  1 12 1       7.50000000
  1 13 1       7.50000000
  1 14 1       7.50000000
  1 15 1       7.50000000
  1 16 1       7.50000000
  1 17 1       7.50000000
  1 18 1       7.50000000
  1 19 1       7.50000000
  1 20 1       7.50000000
  1 21 1       7.50000000
  1 22 1       7.50000000
  1 23 1       7.50000000
  1 24 1       7.50000000
  1 25 1       7.50000000
  1 26 1       7.50000000
  1 27 1       7.50000000
  1 28 1       7.50000000
  1 29 1       7.50000000
  1 30 1       7.50000000
  1 31 1       7.50000000
  1 32 1       7.50000000
  1 33 1       7.50000000
  1 34 1       7.50000000
  1 35 1       7.50000000
  1 36 1       7.50000000
  1 37 1       7.50000000
  1 38 1       7.50000000
  1 39 1       7.50000000
  1 40 1       7.50000000
  1 41 1       7.50000000
  1 42 1       7.50000000
  1 43 1       7.50000000
  1 44 1       7.50000000
  1 45 1       7.50000000
  1 46 1       7.50000000
  1 47 1       7.50000000
  1 48 1       7.50000000
  1 49 1       7.50000000
  1 50 1       7.50000000
  1 51 1       7.50000000
  1 1 51       2.50000000
  1 2 51       2.50000000
  1 3 51       2.50000000
  1 4 51       2.50000000
  1 5 51       2.50000000
  1 6 51       2.50000000
  1 7 51       2.50000000
  1 8 51       2.50000000
  1 9 51       2.50000000
  1 10 51       2.50000000
  1 11 51       2.50000000
  1 12 51       2.50000000
  1 13 51       2.50000000
  1 14 51       2.50000000
  1 15 51       2.50000000
  1 16 51       2.50000000
  1 17 51       2.50000000
  1 18 51       2.50000000
  1 19 51       2.50000000
  1 20 51       2.50000000
  1 21 51       2.50000000
  1 22 51       2.50000000
  1 23 51       2.50000000
  1 24 51       2.50000000
  1 25 51       2.50000000
  1 26 51       2.50000000
  1 27 51       2.50000000
  1 28 51       2.50000000
  1 29 51       2.50000000
  1 30 51       2.50000000
  1 31 51       2.50000000
  1 32 51       2.50000000
  1 33 51       2.50000000
  1 34 51       2.50000000
  1 35 51       2.50000000
  1 36 51       2.50000000
  1 37 51       2.50000000
  1 38 51       2.50000000
  1 39 51       2.50000000
  1 40 51       2.50000000
  1 41 51       2.50000000
  1 42 51       2.50000000
  1 43 51       2.50000000
  1 44 51       2.50000000
  1 45 51       2.50000000
  1 46 51       2.50000000
  1 47 51       2.50000000
  1 48 51       2.50000000
  1 49 51       2.50000000
  1 50 51       2.50000000
  1 51 51       2.50000000
END period  1

