# File generated by Flopy version 3.3.5 on 03/04/2022 at 11:13:41.
BEGIN options
  SAVE_FLOWS
END options

BEGIN packages
  DIS6  .\ex-gwf-bump.dis  dis
  NPF6  .\ex-gwf-bump.npf  npf
  IC6  .\ex-gwf-bump.ic  ic
  CHD6  .\ex-gwf-bump.chd  chd_0
  OC6  .\ex-gwf-bump.oc  oc
END packages

