# File generated by Flopy version 3.3.5 on 03/04/2022 at 11:13:41.
BEGIN options
END options

BEGIN timing
  TDIS6  ex-gwf-bump.tdis
END timing

BEGIN models
  gwf6  ex-gwf-bump.nam  ex-gwf-bump
END models

BEGIN exchanges
END exchanges

BEGIN solutiongroup  1
  ims6  ex-gwf-bump.ims  ex-gwf-bump
END solutiongroup  1

