# WEL package for MODFLOW-2005 generated by Flopy 3.3.5
         4         0 
         4         0 # stress period 1
         1        16        16             1.0
         1        16        21            -1.0
         1         5        16             0.5
         1        27        16             0.5
