# CHD package for MODFLOW-2005 generated by Flopy 3.3.5
        62
        62         0 # stress period 1
         1         1         1      1000.00073      1000.00073
         1         2         1      1000.00073      1000.00073
         1         3         1      1000.00073      1000.00073
         1         4         1      1000.00073      1000.00073
         1         5         1      1000.00073      1000.00073
         1         6         1      1000.00073      1000.00073
         1         7         1      1000.00073      1000.00073
         1         8         1      1000.00073      1000.00073
         1         9         1      1000.00073      1000.00073
         1        10         1      1000.00073      1000.00073
         1        11         1      1000.00073      1000.00073
         1        12         1      1000.00073      1000.00073
         1        13         1      1000.00073      1000.00073
         1        14         1      1000.00073      1000.00073
         1        15         1      1000.00073      1000.00073
         1        16         1      1000.00073      1000.00073
         1        17         1      1000.00073      1000.00073
         1        18         1      1000.00073      1000.00073
         1        19         1      1000.00073      1000.00073
         1        20         1      1000.00073      1000.00073
         1        21         1      1000.00073      1000.00073
         1        22         1      1000.00073      1000.00073
         1        23         1      1000.00073      1000.00073
         1        24         1      1000.00073      1000.00073
         1        25         1      1000.00073      1000.00073
         1        26         1      1000.00073      1000.00073
         1        27         1      1000.00073      1000.00073
         1        28         1      1000.00073      1000.00073
         1        29         1      1000.00073      1000.00073
         1        30         1      1000.00073      1000.00073
         1        31         1      1000.00073      1000.00073
         1         1        46           995.5           995.5
         1         2        46           995.5           995.5
         1         3        46           995.5           995.5
         1         4        46           995.5           995.5
         1         5        46           995.5           995.5
         1         6        46           995.5           995.5
         1         7        46           995.5           995.5
         1         8        46           995.5           995.5
         1         9        46           995.5           995.5
         1        10        46           995.5           995.5
         1        11        46           995.5           995.5
         1        12        46           995.5           995.5
         1        13        46           995.5           995.5
         1        14        46           995.5           995.5
         1        15        46           995.5           995.5
         1        16        46           995.5           995.5
         1        17        46           995.5           995.5
         1        18        46           995.5           995.5
         1        19        46           995.5           995.5
         1        20        46           995.5           995.5
         1        21        46           995.5           995.5
         1        22        46           995.5           995.5
         1        23        46           995.5           995.5
         1        24        46           995.5           995.5
         1        25        46           995.5           995.5
         1        26        46           995.5           995.5
         1        27        46           995.5           995.5
         1        28        46           995.5           995.5
         1        29        46           995.5           995.5
         1        30        46           995.5           995.5
         1        31        46           995.5           995.5
