# CHD package for MODFLOW-2005 generated by Flopy 3.3.5
         1
         1         0 # stress period 1
         1         1       101             1.0             1.0
        -1         0 # stress period 2
