# LPF package for MODFLOW-2005 generated by Flopy 3.3.5
      1001    -1E+30         0  
         1         0         0
         0         0         0
   1.000000E+00   1.000000E+00   1.000000E+00
         0         0         0
         0         0         0
CONSTANT    1.000000E-03                           #hk layer 1                    
CONSTANT    1.000000E-03                           #vka1                          
CONSTANT    1.000000E-08                           #vkcb layer 1                  
CONSTANT    1.000000E-04                           #hk layer 2                    
CONSTANT    1.000000E-04                           #vka2                          
CONSTANT    5.000000E-07                           #vkcb layer 2                  
CONSTANT    2.000000E-04                           #hk layer 3                    
CONSTANT    2.000000E-04                           #vka3                          
