# Name file for MODFLOW-2005, generated by Flopy version 3.3.5.
#xll:0.0; yll:0.0; rotation:0.0; units:meters; lenuni:2; start_datetime:1-1-1970
LIST               2  ex-gwf-twri01.list
DIS               11  ex-gwf-twri01.dis
BAS6              13  ex-gwf-twri01.bas
LPF               15  ex-gwf-twri01.lpf
CHD               24  ex-gwf-twri01.chd
DRN               21  ex-gwf-twri01.drn
WEL               20  ex-gwf-twri01.wel
RCH               19  ex-gwf-twri01.rch
PCG               27  ex-gwf-twri01.pcg
OC                14  ex-gwf-twri01.oc
DATA(BINARY)      51  ex-gwf-twri01.hds REPLACE
DATA(BINARY)    1001  ex-gwf-twri01.cbc REPLACE
