# PCG package for MODFLOW-2005 generated by Flopy 3.3.5
50 100 1 0
1e-09 1e-06 1.0 0 0 3 1.0 
