# File generated by Flopy version 3.3.5 on 03/04/2022 at 11:17:39.
BEGIN options
  PRINT_STAGE
  PRINT_FLOWS
  SAVE_FLOWS
  BUDGET  FILEOUT  ex-gwf-sfr-p01b.lak.bud
  OBS6  FILEIN  ex-gwf-sfr-p01b.lak.obs
  MOVER
  LENGTH_CONVERSION       3.28081000
END options

BEGIN dimensions
  NLAKES  2
  NOUTLETS  2
END dimensions

BEGIN packagedata
  1    1040.00000000  12
  2    1010.00000000  26
END packagedata

BEGIN connectiondata
  1  1  1 9 7  horizontal  2.00000000E-09    1005.00000000    1055.00000000    2500.00000000    5000.00000000
  1  2  1 10 6  horizontal  2.00000000E-09     996.00000000    1046.00000000    2500.00000000    5000.00000000
  1  3  2 10 7  vertical  2.00000000E-09       0.00000000       0.00000000       0.00000000       0.00000000
  1  4  1 9 8  horizontal  2.00000000E-09    1015.00000000    1065.00000000    2500.00000000    5000.00000000
  1  5  1 10 9  horizontal  2.00000000E-09    1038.00000000    1088.00000000    2500.00000000    5000.00000000
  1  6  2 10 8  vertical  2.00000000E-09       0.00000000       0.00000000       0.00000000       0.00000000
  1  7  1 11 6  horizontal  2.00000000E-09     992.00000000    1042.00000000    2500.00000000    5000.00000000
  1  8  1 12 7  horizontal  2.00000000E-09     982.00000000    1032.00000000    2500.00000000    5000.00000000
  1  9  2 11 7  vertical  2.00000000E-09       0.00000000       0.00000000       0.00000000       0.00000000
  1  10  1 11 9  horizontal  2.00000000E-09    1025.00000000    1075.00000000    2500.00000000    5000.00000000
  1  11  1 12 8  horizontal  2.00000000E-09     990.00000000    1040.00000000    2500.00000000    5000.00000000
  1  12  2 11 8  vertical  2.00000000E-09       0.00000000       0.00000000       0.00000000       0.00000000
  2  1  1 10 3  horizontal  2.00000000E-09    1010.00000000    1060.00000000    2500.00000000    5000.00000000
  2  2  1 11 2  horizontal  2.00000000E-09    1005.00000000    1055.00000000    2500.00000000    5000.00000000
  2  3  2 11 3  vertical  2.00000000E-09       0.00000000       0.00000000       0.00000000       0.00000000
  2  4  1 10 4  horizontal  2.00000000E-09    1005.00000000    1055.00000000    2500.00000000    5000.00000000
  2  5  2 11 4  vertical  2.00000000E-09       0.00000000       0.00000000       0.00000000       0.00000000
  2  6  1 10 5  horizontal  2.00000000E-09     996.00000000    1046.00000000    2500.00000000    5000.00000000
  2  7  1 11 6  horizontal  2.00000000E-09     992.00000000    1042.00000000    2500.00000000    5000.00000000
  2  8  2 11 5  vertical  2.00000000E-09       0.00000000       0.00000000       0.00000000       0.00000000
  2  9  1 12 2  horizontal  2.00000000E-09     978.00000000    1028.00000000    2500.00000000    5000.00000000
  2  10  2 12 3  vertical  2.00000000E-09       0.00000000       0.00000000       0.00000000       0.00000000
  2  11  2 12 4  vertical  2.00000000E-09       0.00000000       0.00000000       0.00000000       0.00000000
  2  12  1 12 6  horizontal  2.00000000E-09     983.00000000    1033.00000000    2500.00000000    5000.00000000
  2  13  2 12 5  vertical  2.00000000E-09       0.00000000       0.00000000       0.00000000       0.00000000
  2  14  1 13 2  horizontal  2.00000000E-09     954.00000000    1004.00000000    2500.00000000    5000.00000000
  2  15  2 13 3  vertical  2.00000000E-09       0.00000000       0.00000000       0.00000000       0.00000000
  2  16  2 13 4  vertical  2.00000000E-09       0.00000000       0.00000000       0.00000000       0.00000000
  2  17  1 13 6  horizontal  2.00000000E-09     977.00000000    1027.00000000    2500.00000000    5000.00000000
  2  18  2 13 5  vertical  2.00000000E-09       0.00000000       0.00000000       0.00000000       0.00000000
  2  19  1 14 2  horizontal  2.00000000E-09     980.00000000    1030.00000000    2500.00000000    5000.00000000
  2  20  1 15 3  horizontal  2.00000000E-09    1030.00000000    1080.00000000    2500.00000000    5000.00000000
  2  21  2 14 3  vertical  2.00000000E-09       0.00000000       0.00000000       0.00000000       0.00000000
  2  22  1 15 4  horizontal  2.00000000E-09    1030.00000000    1080.00000000    2500.00000000    5000.00000000
  2  23  2 14 4  vertical  2.00000000E-09       0.00000000       0.00000000       0.00000000       0.00000000
  2  24  1 14 6  horizontal  2.00000000E-09    1000.00000000    1050.00000000    2500.00000000    5000.00000000
  2  25  1 15 5  horizontal  2.00000000E-09    1030.00000000    1080.00000000    2500.00000000    5000.00000000
  2  26  2 14 5  vertical  2.00000000E-09       0.00000000       0.00000000       0.00000000       0.00000000
END connectiondata

BEGIN outlets
  1  1  0  MANNING    1040.00040000      12.00000000       0.03000000       0.00142857
  2  2  0  MANNING    1000.00000000      60.00000000       0.03000000       0.00125000
END outlets

BEGIN period  1
  1  rainfall  5e-08
  1  evaporation  1e-08
  1  runoff  1.5
  1  withdrawal  0.0
  2  rainfall  1.2e-08
  2  evaporation  1.1e-08
  2  runoff  3.0
  2  withdrawal  0.12
END period  1

