# File generated by Flopy version 3.3.5 on 03/04/2022 at 11:17:39.
BEGIN options
  BOUNDNAMES
  PRINT_STAGE
  PRINT_FLOWS
  SAVE_FLOWS
  BUDGET  FILEOUT  ex-gwf-sfr-p01b.sfr.bud
  OBS6  FILEIN  ex-gwf-sfr-p01b.sfr.obs
  MOVER
  MAXIMUM_DEPTH_CHANGE  1.00000000E-06
  UNIT_CONVERSION       1.48600000
END options

BEGIN dimensions
  NREACHES  31
END dimensions

BEGIN packagedata
  1  1 1 1    4500.00000000      12.00000000  8.67700000E-04    1093.04800000       3.00000000  3.00000000E-06  0.03  1       1.00000000  0  allreaches
  2  1 2 2    7000.00000000      12.00000000  8.67700000E-04    1088.05900000       3.00000000  3.00000000E-06  0.03  2       1.00000000  0  allreaches
  3  1 3 3    6000.00000000      12.00000000  8.67700000E-04    1082.41900000       3.00000000  3.00000000E-06  0.03  2       1.00000000  0  allreaches
  4  1 3 4    5550.00000000      12.00000000  8.67700000E-04    1077.40800000       3.00000000  3.00000000E-06  0.03  3       1.00000000  1  allreaches
  5  1 4 5    6500.00000000      12.00000000  9.43400000E-04    1071.93400000       3.00000000  3.00000000E-06  0.03  2       1.00000000  0  allreaches
  6  1 5 6    5000.00000000      12.00000000  9.43400000E-04    1066.50900000       3.00000000  3.00000000E-06  0.03  2       1.00000000  0  allreaches
  7  1 6 6    5000.00000000      12.00000000  9.43400000E-04    1061.79200000       3.00000000  3.00000000E-06  0.03  2       1.00000000  0  allreaches
  8  1 7 6    5000.00000000      12.00000000  9.43400000E-04    1057.07500000       3.00000000  3.00000000E-06  0.03  2       1.00000000  0  allreaches
  9  1 8 6    5000.00000000      12.00000000  9.43400000E-04    1052.35900000       3.00000000  3.00000000E-06  0.03  2       1.00000000  0  allreaches
  10  1 3 5    5000.00000000       9.63636400  5.45500000E-04    1073.63600000       2.00000000  3.00000000E-07  0.03  2       0.00000000  0  allreaches
  11  1 3 6    5000.00000000       8.90909100  5.45500000E-04    1070.90900000       2.00000000  3.00000000E-07  0.03  2       1.00000000  0  allreaches
  12  1 3 7    4500.00000000       8.21818200  5.45500000E-04    1068.31800000       2.00000000  3.00000000E-07  0.03  2       1.00000000  0  allreaches
  13  1 4 8    6000.00000000       7.45454500  5.45500000E-04    1065.45500000       2.00000000  3.00000000E-07  0.03  2       1.00000000  0  allreaches
  14  1 5 8    5000.00000000       6.65454600  5.45500000E-04    1062.45500000       2.00000000  3.00000000E-07  0.03  2       1.00000000  0  allreaches
  15  1 6 8    2000.00000000       6.14545400  5.45500000E-04    1060.54500000       2.00000000  3.00000000E-07  0.03  2       1.00000000  0  allreaches
  16  1 5 10    2500.00000000      10.00000000       0.00181820    1077.72700000       3.00000000  3.00000000E-06  0.03  1       1.00000000  0  allreaches
  17  1 5 9    5000.00000000      10.00000000       0.00181820    1070.90900000       3.00000000  3.00000000E-06  0.03  2       1.00000000  0  allreaches
  18  1 6 8    3500.00000000      10.00000000       0.00181820    1063.18200000       3.00000000  3.00000000E-06  0.03  2       1.00000000  0  allreaches
  19  1 6 8    4000.00000000      10.00000000  6.66700000E-04    1058.66700000       3.00000000  3.00000000E-06  0.03  3       1.00000000  0  allreaches
  20  1 7 7    5000.00000000      10.00000000  6.66700000E-04    1055.66700000       3.00000000  3.00000000E-06  0.03  2       1.00000000  0  allreaches
  21  1 8 7    3500.00000000      10.00000000  6.66700000E-04    1052.83300000       3.00000000  3.00000000E-06  0.03  2       1.00000000  0  allreaches
  22  1 8 6    2500.00000000      10.00000000  6.66700000E-04    1050.83300000       3.00000000  3.00000000E-06  0.03  2       1.00000000  0  allreaches
  23  1 9 6    5000.00000000      12.00000000       0.00180000    1045.50000000       3.00000000  3.00000000E-06  0.03  2       1.00000000  0  allreaches
  24  1 12 7    5000.00000000      12.00000000       0.00142860    1036.42900000       3.00000000  3.00000000E-07  0.03  1       1.00000000  0  allreaches
  25  1 13 7    5500.00000000      12.00000000       0.00142860    1028.92900000       3.00000000  3.00000000E-07  0.03  2       1.00000000  0  allreaches
  26  1 14 9    5000.00000000      60.00000000  6.66700000E-04    1033.33300000       3.00000000  6.00000000E-06  0.03  1       1.00000000  0  allreaches
  27  1 13 8    5000.00000000      60.00000000  6.66700000E-04    1030.00000000       3.00000000  6.00000000E-06  0.03  2       1.00000000  0  allreaches
  28  1 13 7    5000.00000000      60.00000000  6.66700000E-04    1026.66700000       3.00000000  6.00000000E-06  0.03  2       1.00000000  0  allreaches
  29  1 13 6    5000.00000000      60.00000000       0.00480000    1013.00000000       3.00000000  6.00000000E-06  0.03  2       1.00000000  0  allreaches
  30  1 13 2    5000.00000000      60.00000000       0.00125000     996.87500000       3.00000000  6.00000000E-06  0.03  1       1.00000000  0  allreaches
  31  1 13 1    3000.00000000      60.00000000       0.00125000     991.87500000       3.00000000  6.00000000E-06  0.03  1       1.00000000  0  allreaches
END packagedata

BEGIN connectiondata
  1  -2
  2  1  -3
  3  2  -4
  4  3  -5  -10
  5  4  -6
  6  5  -7
  7  6  -8
  8  7  -9
  9  8  -23
  10  4  -11
  11  10  -12
  12  11  -13
  13  12  -14
  14  13  -15
  15  14  -19
  16  -17
  17  16  -18
  18  17  -19
  19  15  18  -20
  20  19  -21
  21  20  -22
  22  21  -23
  23  9  22
  24  -25
  25  24  -29
  26  -27
  27  26  -28
  28  27  -29
  29  25  28
  30  -31
  31  30
END connectiondata

BEGIN diversions
  4  1  10  UPTO
END diversions

BEGIN period  1
  1  inflow  25.0
  4  diversion  1      10.00000000
  16  inflow  10.0
  26  inflow  150.0
END period  1

