# File generated by Flopy version 3.3.5 on 03/04/2022 at 11:17:39.
BEGIN options
  LENGTH_UNITS  feet
END options

BEGIN dimensions
  NLAY  2
  NROW  15
  NCOL  10
END dimensions

BEGIN griddata
  delr
    CONSTANT    5000.00000000
  delc
    CONSTANT    5000.00000000
  top
    INTERNAL  FACTOR  1.0
      1105.00000000    1105.00000000       0.00000000       0.00000000       0.00000000       0.00000000       0.00000000       0.00000000       0.00000000       0.00000000
      1105.00000000    1095.00000000    1105.00000000       0.00000000       0.00000000    1100.00000000    1100.00000000    1110.00000000       0.00000000       0.00000000
         0.00000000    1100.00000000    1085.00000000    1080.00000000    1078.00000000    1076.00000000    1073.00000000    1090.00000000       0.00000000       0.00000000
      1110.00000000    1100.00000000    1090.00000000    1085.00000000    1076.00000000    1080.00000000    1080.00000000    1070.00000000    1100.00000000       0.00000000
      1110.00000000    1100.00000000    1085.00000000    1080.00000000    1078.00000000    1074.00000000    1077.00000000    1066.00000000    1075.00000000    1080.00000000
      1105.00000000    1095.00000000    1080.00000000    1077.00000000    1073.00000000    1069.00000000    1070.00000000    1063.00000000    1085.00000000    1095.00000000
      1105.00000000    1090.00000000    1075.00000000    1072.00000000    1070.00000000    1065.00000000    1065.00000000    1069.00000000    1090.00000000       0.00000000
         0.00000000    1080.00000000    1070.00000000    1068.00000000    1063.00000000    1060.00000000    1063.00000000    1067.00000000    1090.00000000       0.00000000
         0.00000000    1075.00000000    1065.00000000    1062.00000000    1058.00000000    1052.00000000    1055.00000000    1065.00000000    1090.00000000       0.00000000
         0.00000000    1070.00000000    1060.00000000    1055.00000000    1046.00000000    1046.00000000    1044.00000000    1060.00000000    1088.00000000    1100.00000000
         0.00000000    1055.00000000    1050.00000000    1045.00000000    1041.00000000    1042.00000000    1040.00000000    1050.00000000    1075.00000000       0.00000000
      1027.00000000    1028.00000000    1028.00000000    1032.00000000    1032.00000000    1033.00000000    1032.00000000    1040.00000000    1060.00000000       0.00000000
       997.00000000    1004.00000000    1008.00000000    1014.00000000    1020.00000000    1027.00000000    1032.00000000    1038.00000000    1050.00000000       0.00000000
         0.00000000    1030.00000000    1040.00000000    1045.00000000    1050.00000000    1050.00000000    1050.00000000    1050.00000000    1044.00000000       0.00000000
         0.00000000       0.00000000    1080.00000000    1080.00000000    1080.00000000    1080.00000000       0.00000000       0.00000000       0.00000000       0.00000000
  botm  LAYERED
    INTERNAL  FACTOR  1.0
        1055.00000000    1055.00000000       0.00000000       0.00000000       0.00000000       0.00000000       0.00000000       0.00000000       0.00000000       0.00000000
        1055.00000000    1045.00000000    1055.00000000       0.00000000       0.00000000    1050.00000000    1050.00000000    1060.00000000       0.00000000       0.00000000
           0.00000000    1050.00000000    1035.00000000    1030.00000000    1028.00000000    1026.00000000    1023.00000000    1040.00000000       0.00000000       0.00000000
        1060.00000000    1050.00000000    1040.00000000    1035.00000000    1026.00000000    1030.00000000    1030.00000000    1020.00000000    1050.00000000       0.00000000
        1060.00000000    1050.00000000    1035.00000000    1030.00000000    1028.00000000    1027.00000000    1027.00000000    1016.00000000    1025.00000000    1030.00000000
        1055.00000000    1045.00000000    1030.00000000    1027.00000000    1023.00000000    1019.00000000    1020.00000000    1013.00000000    1035.00000000    1045.00000000
        1055.00000000    1040.00000000    1025.00000000    1022.00000000    1020.00000000    1015.00000000    1015.00000000    1019.00000000    1040.00000000       0.00000000
           0.00000000    1030.00000000    1020.00000000    1018.00000000    1013.00000000    1010.00000000    1013.00000000    1017.00000000    1040.00000000       0.00000000
           0.00000000    1025.00000000    1015.00000000    1012.00000000    1008.00000000    1002.00000000    1005.00000000    1015.00000000    1040.00000000       0.00000000
           0.00000000    1020.00000000    1010.00000000    1005.00000000     996.00000000     996.00000000     994.00000000    1010.00000000    1038.00000000    1050.00000000
           0.00000000    1005.00000000    1000.00000000     995.00000000     991.00000000     992.00000000     990.00000000    1000.00000000    1025.00000000       0.00000000
         977.00000000     978.00000000     978.00000000     982.00000000     982.00000000     983.00000000     982.00000000     990.00000000    1010.00000000       0.00000000
         947.00000000     954.00000000     958.00000000     964.00000000     970.00000000     977.00000000     982.00000000     988.00000000    1000.00000000       0.00000000
           0.00000000     980.00000000     990.00000000     995.00000000    1000.00000000    1000.00000000    1000.00000000    1000.00000000     994.00000000       0.00000000
           0.00000000       0.00000000    1030.00000000    1030.00000000    1030.00000000    1030.00000000       0.00000000       0.00000000       0.00000000       0.00000000
    INTERNAL  FACTOR  1.0
         300.00000000     300.00000000     300.00000000     300.00000000     300.00000000     300.00000000     300.00000000     300.00000000     300.00000000     300.00000000
         300.00000000     300.00000000     300.00000000     300.00000000     300.00000000     300.00000000     300.00000000     300.00000000     300.00000000     300.00000000
         300.00000000     300.00000000     300.00000000     300.00000000     300.00000000     300.00000000     300.00000000     300.00000000     300.00000000     300.00000000
         300.00000000     300.00000000     300.00000000     300.00000000     300.00000000     300.00000000     300.00000000     300.00000000     300.00000000     300.00000000
         300.00000000     300.00000000     300.00000000     300.00000000     300.00000000     300.00000000     300.00000000     300.00000000     300.00000000     300.00000000
         300.00000000     300.00000000     300.00000000     300.00000000     300.00000000     300.00000000     300.00000000     300.00000000     300.00000000     300.00000000
         300.00000000     300.00000000     300.00000000     300.00000000     300.00000000     300.00000000     300.00000000     300.00000000     300.00000000     300.00000000
         300.00000000     300.00000000     300.00000000     300.00000000     300.00000000     300.00000000     300.00000000     300.00000000     300.00000000     300.00000000
         300.00000000     300.00000000     300.00000000     300.00000000     300.00000000     300.00000000     300.00000000     300.00000000     300.00000000     300.00000000
         300.00000000     300.00000000     300.00000000     300.00000000     300.00000000     300.00000000     300.00000000     300.00000000     300.00000000     300.00000000
         300.00000000     300.00000000     300.00000000     300.00000000     300.00000000     300.00000000     300.00000000     300.00000000     300.00000000     300.00000000
         300.00000000     300.00000000     300.00000000     300.00000000     300.00000000     300.00000000     300.00000000     300.00000000     300.00000000     300.00000000
         300.00000000     300.00000000     300.00000000     300.00000000     300.00000000     300.00000000     300.00000000     300.00000000     300.00000000     300.00000000
         300.00000000     300.00000000     300.00000000     300.00000000     300.00000000     300.00000000     300.00000000     300.00000000     300.00000000     300.00000000
         300.00000000     300.00000000     300.00000000     300.00000000     300.00000000     300.00000000     300.00000000     300.00000000     300.00000000     300.00000000
  idomain  LAYERED
    INTERNAL  FACTOR  1
      1  1  0  0  0  0  0  0  0  0
      1  1  1  0  0  1  1  1  0  0
      0  1  1  1  1  1  1  1  0  0
      1  1  1  1  1  1  1  1  1  0
      1  1  1  1  1  1  1  1  1  1
      1  1  1  1  1  1  1  1  1  1
      1  1  1  1  1  1  1  1  1  0
      0  1  1  1  1  1  1  1  1  0
      0  1  1  1  1  1  1  1  1  0
      0  1  1  1  1  1  0  0  1  1
      0  1  0  0  0  1  0  0  1  0
      1  1  0  0  0  1  1  1  1  0
      1  1  0  0  0  1  1  1  1  0
      0  1  0  0  0  1  1  1  1  0
      0  0  1  1  1  1  0  0  0  0
    INTERNAL  FACTOR  1
      1  1  0  0  0  0  0  0  0  0
      1  1  1  0  0  1  1  1  0  0
      0  1  1  1  1  1  1  1  0  0
      1  1  1  1  1  1  1  1  1  0
      1  1  1  1  1  1  1  1  1  1
      1  1  1  1  1  1  1  1  1  1
      1  1  1  1  1  1  1  1  1  0
      0  1  1  1  1  1  1  1  1  0
      0  1  1  1  1  1  1  1  1  0
      0  1  1  1  1  1  1  1  1  1
      0  1  1  1  1  1  1  1  1  0
      1  1  1  1  1  1  1  1  1  0
      1  1  1  1  1  1  1  1  1  0
      0  1  1  1  1  1  1  1  1  0
      0  0  1  1  1  1  0  0  0  0
END griddata

