# File generated by Flopy version 3.3.5 on 03/04/2022 at 11:17:39.
BEGIN options
  BUDGET  FILEOUT  ex-gwf-sfr-p01b.cbc
  HEAD  FILEOUT  ex-gwf-sfr-p01b.hds
END options

BEGIN period  1
  SAVE  HEAD  LAST
  SAVE  BUDGET  LAST
END period  1

