# File generated by Flopy version 3.3.5 on 03/04/2022 at 11:17:39.
BEGIN options
  DIGITS  10
END options

BEGIN continuous  FILEOUT  obs_lak.csv
  LAK1_STAGE  STAGE  1
  LAK2_STAGE  STAGE  2
  LAK1_TO-MVR  TO-MVR  1
  LAK1_FROM-MVR  FROM-MVR  1
  LAK2_TO-MVR  TO-MVR  2
  LAK2_FROM-MVR  FROM-MVR  2
END continuous  FILEOUT  obs_lak.csv

