# File generated by Flopy version 3.3.5 on 03/04/2022 at 11:17:39.
BEGIN options
  BOUNDNAMES
  SAVE_FLOWS
  BUDGET  FILEOUT  ex-gwf-sfr-p01b.uzf.bud
  OBS6  FILEIN  ex-gwf-sfr-p01b.uzf.obs
  MOVER
  SIMULATE_ET
  LINEAR_GWET
  SIMULATE_GWSEEP
END options

BEGIN dimensions
  NUZFCELLS  200
  NTRAILWAVES  10
  NWAVESETS  50
END dimensions

BEGIN packagedata
  1  1 1 1  1  101       0.10000000  1.00000000E-06       0.10000000       0.30000000       0.11000000       3.50000000  uzfcells
  2  1 1 2  1  102       0.10000000  1.00000000E-06       0.10000000       0.30000000       0.11000000       3.50000000  uzfcells
  3  1 2 1  1  103       0.10000000  1.00000000E-06       0.20000000       0.30000000       0.21000000       3.50000000  uzfcells
  4  1 2 2  1  104       0.10000000  1.00000000E-06       0.10000000       0.30000000       0.11000000       3.50000000  uzfcells
  5  1 2 3  1  105       0.10000000  1.00000000E-06       0.10000000       0.30000000       0.11000000       3.50000000  uzfcells
  6  1 2 6  1  106       0.10000000  1.00000000E-06       0.20000000       0.30000000       0.21000000       3.50000000  uzfcells
  7  1 2 7  1  107       0.10000000  1.00000000E-06       0.20000000       0.30000000       0.21000000       3.50000000  uzfcells
  8  1 2 8  1  108       0.10000000  1.00000000E-06       0.20000000       0.30000000       0.21000000       3.50000000  uzfcells
  9  1 3 2  1  109       0.10000000  1.00000000E-06       0.20000000       0.30000000       0.21000000       3.50000000  uzfcells
  10  1 3 3  1  110       0.10000000  1.00000000E-06       0.10000000       0.30000000       0.11000000       3.50000000  uzfcells
  11  1 3 4  1  111       0.10000000  1.00000000E-06       0.10000000       0.30000000       0.11000000       3.50000000  uzfcells
  12  1 3 5  1  112       0.10000000  1.00000000E-06       0.20000000       0.30000000       0.21000000       3.50000000  uzfcells
  13  1 3 6  1  113       0.10000000  1.00000000E-06       0.20000000       0.30000000       0.21000000       3.50000000  uzfcells
  14  1 3 7  1  114       0.10000000  1.00000000E-06       0.20000000       0.30000000       0.21000000       3.50000000  uzfcells
  15  1 3 8  1  115       0.10000000  1.00000000E-06       0.20000000       0.30000000       0.21000000       3.50000000  uzfcells
  16  1 4 1  1  116       0.10000000  1.00000000E-06       0.20000000       0.30000000       0.21000000       3.50000000  uzfcells
  17  1 4 2  1  117       0.10000000  1.00000000E-06       0.20000000       0.30000000       0.21000000       3.50000000  uzfcells
  18  1 4 3  1  118       0.10000000  1.00000000E-06       0.20000000       0.30000000       0.21000000       3.50000000  uzfcells
  19  1 4 4  1  119       0.10000000  1.00000000E-06       0.10000000       0.30000000       0.11000000       3.50000000  uzfcells
  20  1 4 5  1  120       0.10000000  1.00000000E-06       0.10000000       0.30000000       0.11000000       3.50000000  uzfcells
  21  1 4 6  1  121       0.10000000  1.00000000E-06       0.10000000       0.30000000       0.11000000       3.50000000  uzfcells
  22  1 4 7  1  122       0.10000000  1.00000000E-06       0.20000000       0.30000000       0.21000000       3.50000000  uzfcells
  23  1 4 8  1  123       0.10000000  1.00000000E-06       0.20000000       0.30000000       0.21000000       3.50000000  uzfcells
  24  1 4 9  1  124       0.10000000  1.00000000E-06       0.20000000       0.30000000       0.21000000       3.50000000  uzfcells
  25  1 5 1  1  125       0.10000000  1.00000000E-06       0.20000000       0.30000000       0.21000000       3.50000000  uzfcells
  26  1 5 2  1  126       0.10000000  1.00000000E-06       0.20000000       0.30000000       0.21000000       3.50000000  uzfcells
  27  1 5 3  1  127       0.10000000  1.00000000E-06       0.20000000       0.30000000       0.21000000       3.50000000  uzfcells
  28  1 5 4  1  128       0.10000000  1.00000000E-06       0.10000000       0.30000000       0.11000000       3.50000000  uzfcells
  29  1 5 5  1  129       0.10000000  1.00000000E-06       0.10000000       0.30000000       0.11000000       3.50000000  uzfcells
  30  1 5 6  1  130       0.10000000  1.00000000E-06       0.10000000       0.30000000       0.11000000       3.50000000  uzfcells
  31  1 5 7  1  131       0.10000000  1.00000000E-06       0.10000000       0.30000000       0.11000000       3.50000000  uzfcells
  32  1 5 8  1  132       0.10000000  1.00000000E-06       0.10000000       0.30000000       0.11000000       3.50000000  uzfcells
  33  1 5 9  1  133       0.10000000  1.00000000E-06       0.10000000       0.30000000       0.11000000       3.50000000  uzfcells
  34  1 5 10  1  134       0.10000000  1.00000000E-06       0.10000000       0.30000000       0.11000000       3.50000000  uzfcells
  35  1 6 1  1  135       0.10000000  1.00000000E-06       0.20000000       0.30000000       0.21000000       3.50000000  uzfcells
  36  1 6 2  1  136       0.10000000  1.00000000E-06       0.20000000       0.30000000       0.21000000       3.50000000  uzfcells
  37  1 6 3  1  137       0.10000000  1.00000000E-06       0.20000000       0.30000000       0.21000000       3.50000000  uzfcells
  38  1 6 4  1  138       0.10000000  1.00000000E-06       0.10000000       0.30000000       0.11000000       3.50000000  ag
  39  1 6 5  1  139       0.10000000  1.00000000E-06       0.10000000       0.30000000       0.11000000       3.50000000  ag
  40  1 6 6  1  140       0.10000000  1.00000000E-06       0.10000000       0.30000000       0.11000000       3.50000000  uzfcells
  41  1 6 7  1  141       0.10000000  1.00000000E-06       0.10000000       0.30000000       0.11000000       3.50000000  uzfcells
  42  1 6 8  1  142       0.10000000  1.00000000E-06       0.10000000       0.30000000       0.11000000       3.50000000  uzfcells
  43  1 6 9  1  143       0.10000000  1.00000000E-06       0.20000000       0.30000000       0.21000000       3.50000000  uzfcells
  44  1 6 10  1  144       0.10000000  1.00000000E-06       0.20000000       0.30000000       0.21000000       3.50000000  uzfcells
  45  1 7 1  1  145       0.10000000  1.00000000E-06       0.20000000       0.30000000       0.21000000       3.50000000  uzfcells
  46  1 7 2  1  146       0.10000000  1.00000000E-06       0.20000000       0.30000000       0.21000000       3.50000000  uzfcells
  47  1 7 3  1  147       0.10000000  1.00000000E-06       0.20000000       0.30000000       0.21000000       3.50000000  uzfcells
  48  1 7 4  1  148       0.10000000  1.00000000E-06       0.10000000       0.30000000       0.11000000       3.50000000  ag
  49  1 7 5  1  149       0.10000000  1.00000000E-06       0.10000000       0.30000000       0.11000000       3.50000000  ag
  50  1 7 6  1  150       0.10000000  1.00000000E-06       0.10000000       0.30000000       0.11000000       3.50000000  uzfcells
  51  1 7 7  1  151       0.10000000  1.00000000E-06       0.10000000       0.30000000       0.11000000       3.50000000  uzfcells
  52  1 7 8  1  152       0.10000000  1.00000000E-06       0.10000000       0.30000000       0.11000000       3.50000000  uzfcells
  53  1 7 9  1  153       0.10000000  1.00000000E-06       0.20000000       0.30000000       0.21000000       3.50000000  uzfcells
  54  1 8 2  1  154       0.10000000  1.00000000E-06       0.20000000       0.30000000       0.21000000       3.50000000  uzfcells
  55  1 8 3  1  155       0.10000000  1.00000000E-06       0.20000000       0.30000000       0.21000000       3.50000000  uzfcells
  56  1 8 4  1  156       0.10000000  1.00000000E-06       0.10000000       0.30000000       0.11000000       3.50000000  ag
  57  1 8 5  1  157       0.10000000  1.00000000E-06       0.10000000       0.30000000       0.11000000       3.50000000  ag
  58  1 8 6  1  158       0.10000000  1.00000000E-06       0.10000000       0.30000000       0.11000000       3.50000000  uzfcells
  59  1 8 7  1  159       0.10000000  1.00000000E-06       0.10000000       0.30000000       0.11000000       3.50000000  uzfcells
  60  1 8 8  1  160       0.10000000  1.00000000E-06       0.20000000       0.30000000       0.21000000       3.50000000  uzfcells
  61  1 8 9  1  161       0.10000000  1.00000000E-06       0.20000000       0.30000000       0.21000000       3.50000000  uzfcells
  62  1 9 2  1  162       0.10000000  1.00000000E-06       0.20000000       0.30000000       0.21000000       3.50000000  uzfcells
  63  1 9 3  1  163       0.10000000  1.00000000E-06       0.20000000       0.30000000       0.21000000       3.50000000  uzfcells
  64  1 9 4  1  164       0.10000000  1.00000000E-06       0.10000000       0.30000000       0.11000000       3.50000000  ag
  65  1 9 5  1  165       0.10000000  1.00000000E-06       0.10000000       0.30000000       0.11000000       3.50000000  ag
  66  1 9 6  1  166       0.10000000  1.00000000E-06       0.10000000       0.30000000       0.11000000       3.50000000  uzfcells
  67  1 9 7  1  167       0.10000000  1.00000000E-06       0.10000000       0.30000000       0.11000000       3.50000000  uzfcells
  68  1 9 8  1  168       0.10000000  1.00000000E-06       0.20000000       0.30000000       0.21000000       3.50000000  uzfcells
  69  1 9 9  1  169       0.10000000  1.00000000E-06       0.20000000       0.30000000       0.21000000       3.50000000  uzfcells
  70  1 10 2  1  170       0.10000000  1.00000000E-06       0.20000000       0.30000000       0.21000000       3.50000000  uzfcells
  71  1 10 3  1  171       0.10000000  1.00000000E-06       0.20000000       0.30000000       0.21000000       3.50000000  uzfcells
  72  1 10 4  1  172       0.10000000  1.00000000E-06       0.10000000       0.30000000       0.11000000       3.50000000  ag
  73  1 10 5  1  173       0.10000000  1.00000000E-06       0.10000000       0.30000000       0.11000000       3.50000000  ag
  74  1 10 6  1  174       0.10000000  1.00000000E-06       0.10000000       0.30000000       0.11000000       3.50000000  uzfcells
  75  1 10 9  1  175       0.10000000  1.00000000E-06       0.20000000       0.30000000       0.21000000       3.50000000  uzfcells
  76  1 10 10  1  176       0.10000000  1.00000000E-06       0.20000000       0.30000000       0.21000000       3.50000000  uzfcells
  77  1 11 2  1  177       0.10000000  1.00000000E-06       0.20000000       0.30000000       0.21000000       3.50000000  uzfcells
  78  1 11 6  1  178       0.10000000  1.00000000E-06       0.10000000       0.30000000       0.11000000       3.50000000  uzfcells
  79  1 11 9  1  179       0.10000000  1.00000000E-06       0.20000000       0.30000000       0.21000000       3.50000000  uzfcells
  80  1 12 1  1  180       0.10000000  1.00000000E-06       0.20000000       0.30000000       0.21000000       3.50000000  uzfcells
  81  1 12 2  1  181       0.10000000  1.00000000E-06       0.20000000       0.30000000       0.21000000       3.50000000  uzfcells
  82  1 12 6  1  182       0.10000000  1.00000000E-06       0.10000000       0.30000000       0.11000000       3.50000000  uzfcells
  83  1 12 7  1  183       0.10000000  1.00000000E-06       0.10000000       0.30000000       0.11000000       3.50000000  uzfcells
  84  1 12 8  1  184       0.10000000  1.00000000E-06       0.20000000       0.30000000       0.21000000       3.50000000  uzfcells
  85  1 12 9  1  185       0.10000000  1.00000000E-06       0.20000000       0.30000000       0.21000000       3.50000000  uzfcells
  86  1 13 1  1  186       0.10000000  1.00000000E-06       0.10000000       0.30000000       0.11000000       3.50000000  uzfcells
  87  1 13 2  1  187       0.10000000  1.00000000E-06       0.10000000       0.30000000       0.11000000       3.50000000  uzfcells
  88  1 13 6  1  188       0.10000000  1.00000000E-06       0.10000000       0.30000000       0.11000000       3.50000000  uzfcells
  89  1 13 7  1  189       0.10000000  1.00000000E-06       0.10000000       0.30000000       0.11000000       3.50000000  uzfcells
  90  1 13 8  1  190       0.10000000  1.00000000E-06       0.10000000       0.30000000       0.11000000       3.50000000  uzfcells
  91  1 13 9  1  191       0.10000000  1.00000000E-06       0.10000000       0.30000000       0.11000000       3.50000000  uzfcells
  92  1 14 2  1  192       0.10000000  1.00000000E-06       0.20000000       0.30000000       0.21000000       3.50000000  uzfcells
  93  1 14 6  1  193       0.10000000  1.00000000E-06       0.20000000       0.30000000       0.21000000       3.50000000  uzfcells
  94  1 14 7  1  194       0.10000000  1.00000000E-06       0.20000000       0.30000000       0.21000000       3.50000000  uzfcells
  95  1 14 8  1  195       0.10000000  1.00000000E-06       0.20000000       0.30000000       0.21000000       3.50000000  uzfcells
  96  1 14 9  1  196       0.10000000  1.00000000E-06       0.10000000       0.30000000       0.11000000       3.50000000  uzfcells
  97  1 15 3  1  197       0.10000000  1.00000000E-06       0.20000000       0.30000000       0.21000000       3.50000000  uzfcells
  98  1 15 4  1  198       0.10000000  1.00000000E-06       0.20000000       0.30000000       0.21000000       3.50000000  uzfcells
  99  1 15 5  1  199       0.10000000  1.00000000E-06       0.20000000       0.30000000       0.21000000       3.50000000  uzfcells
  100  1 15 6  1  200       0.10000000  1.00000000E-06       0.20000000       0.30000000       0.21000000       3.50000000  uzfcells
  101  2 1 1  0  0       0.10000000  1.00000000E-06       0.10000000       0.30000000       0.11000000       3.50000000  uzfcells
  102  2 1 2  0  0       0.10000000  1.00000000E-06       0.10000000       0.30000000       0.11000000       3.50000000  uzfcells
  103  2 2 1  0  0       0.10000000  1.00000000E-06       0.20000000       0.30000000       0.21000000       3.50000000  uzfcells
  104  2 2 2  0  0       0.10000000  1.00000000E-06       0.10000000       0.30000000       0.11000000       3.50000000  uzfcells
  105  2 2 3  0  0       0.10000000  1.00000000E-06       0.10000000       0.30000000       0.11000000       3.50000000  uzfcells
  106  2 2 6  0  0       0.10000000  1.00000000E-06       0.20000000       0.30000000       0.21000000       3.50000000  uzfcells
  107  2 2 7  0  0       0.10000000  1.00000000E-06       0.20000000       0.30000000       0.21000000       3.50000000  uzfcells
  108  2 2 8  0  0       0.10000000  1.00000000E-06       0.20000000       0.30000000       0.21000000       3.50000000  uzfcells
  109  2 3 2  0  0       0.10000000  1.00000000E-06       0.20000000       0.30000000       0.21000000       3.50000000  uzfcells
  110  2 3 3  0  0       0.10000000  1.00000000E-06       0.10000000       0.30000000       0.11000000       3.50000000  uzfcells
  111  2 3 4  0  0       0.10000000  1.00000000E-06       0.10000000       0.30000000       0.11000000       3.50000000  uzfcells
  112  2 3 5  0  0       0.10000000  1.00000000E-06       0.20000000       0.30000000       0.21000000       3.50000000  uzfcells
  113  2 3 6  0  0       0.10000000  1.00000000E-06       0.20000000       0.30000000       0.21000000       3.50000000  uzfcells
  114  2 3 7  0  0       0.10000000  1.00000000E-06       0.20000000       0.30000000       0.21000000       3.50000000  uzfcells
  115  2 3 8  0  0       0.10000000  1.00000000E-06       0.20000000       0.30000000       0.21000000       3.50000000  uzfcells
  116  2 4 1  0  0       0.10000000  1.00000000E-06       0.20000000       0.30000000       0.21000000       3.50000000  uzfcells
  117  2 4 2  0  0       0.10000000  1.00000000E-06       0.20000000       0.30000000       0.21000000       3.50000000  uzfcells
  118  2 4 3  0  0       0.10000000  1.00000000E-06       0.20000000       0.30000000       0.21000000       3.50000000  uzfcells
  119  2 4 4  0  0       0.10000000  1.00000000E-06       0.10000000       0.30000000       0.11000000       3.50000000  uzfcells
  120  2 4 5  0  0       0.10000000  1.00000000E-06       0.10000000       0.30000000       0.11000000       3.50000000  uzfcells
  121  2 4 6  0  0       0.10000000  1.00000000E-06       0.10000000       0.30000000       0.11000000       3.50000000  uzfcells
  122  2 4 7  0  0       0.10000000  1.00000000E-06       0.20000000       0.30000000       0.21000000       3.50000000  uzfcells
  123  2 4 8  0  0       0.10000000  1.00000000E-06       0.20000000       0.30000000       0.21000000       3.50000000  uzfcells
  124  2 4 9  0  0       0.10000000  1.00000000E-06       0.20000000       0.30000000       0.21000000       3.50000000  uzfcells
  125  2 5 1  0  0       0.10000000  1.00000000E-06       0.20000000       0.30000000       0.21000000       3.50000000  uzfcells
  126  2 5 2  0  0       0.10000000  1.00000000E-06       0.20000000       0.30000000       0.21000000       3.50000000  uzfcells
  127  2 5 3  0  0       0.10000000  1.00000000E-06       0.20000000       0.30000000       0.21000000       3.50000000  uzfcells
  128  2 5 4  0  0       0.10000000  1.00000000E-06       0.10000000       0.30000000       0.11000000       3.50000000  uzfcells
  129  2 5 5  0  0       0.10000000  1.00000000E-06       0.10000000       0.30000000       0.11000000       3.50000000  uzfcells
  130  2 5 6  0  0       0.10000000  1.00000000E-06       0.10000000       0.30000000       0.11000000       3.50000000  uzfcells
  131  2 5 7  0  0       0.10000000  1.00000000E-06       0.10000000       0.30000000       0.11000000       3.50000000  uzfcells
  132  2 5 8  0  0       0.10000000  1.00000000E-06       0.10000000       0.30000000       0.11000000       3.50000000  uzfcells
  133  2 5 9  0  0       0.10000000  1.00000000E-06       0.10000000       0.30000000       0.11000000       3.50000000  uzfcells
  134  2 5 10  0  0       0.10000000  1.00000000E-06       0.10000000       0.30000000       0.11000000       3.50000000  uzfcells
  135  2 6 1  0  0       0.10000000  1.00000000E-06       0.20000000       0.30000000       0.21000000       3.50000000  uzfcells
  136  2 6 2  0  0       0.10000000  1.00000000E-06       0.20000000       0.30000000       0.21000000       3.50000000  uzfcells
  137  2 6 3  0  0       0.10000000  1.00000000E-06       0.20000000       0.30000000       0.21000000       3.50000000  uzfcells
  138  2 6 4  0  0       0.10000000  1.00000000E-06       0.10000000       0.30000000       0.11000000       3.50000000  ag
  139  2 6 5  0  0       0.10000000  1.00000000E-06       0.10000000       0.30000000       0.11000000       3.50000000  ag
  140  2 6 6  0  0       0.10000000  1.00000000E-06       0.10000000       0.30000000       0.11000000       3.50000000  uzfcells
  141  2 6 7  0  0       0.10000000  1.00000000E-06       0.10000000       0.30000000       0.11000000       3.50000000  uzfcells
  142  2 6 8  0  0       0.10000000  1.00000000E-06       0.10000000       0.30000000       0.11000000       3.50000000  uzfcells
  143  2 6 9  0  0       0.10000000  1.00000000E-06       0.20000000       0.30000000       0.21000000       3.50000000  uzfcells
  144  2 6 10  0  0       0.10000000  1.00000000E-06       0.20000000       0.30000000       0.21000000       3.50000000  uzfcells
  145  2 7 1  0  0       0.10000000  1.00000000E-06       0.20000000       0.30000000       0.21000000       3.50000000  uzfcells
  146  2 7 2  0  0       0.10000000  1.00000000E-06       0.20000000       0.30000000       0.21000000       3.50000000  uzfcells
  147  2 7 3  0  0       0.10000000  1.00000000E-06       0.20000000       0.30000000       0.21000000       3.50000000  uzfcells
  148  2 7 4  0  0       0.10000000  1.00000000E-06       0.10000000       0.30000000       0.11000000       3.50000000  ag
  149  2 7 5  0  0       0.10000000  1.00000000E-06       0.10000000       0.30000000       0.11000000       3.50000000  ag
  150  2 7 6  0  0       0.10000000  1.00000000E-06       0.10000000       0.30000000       0.11000000       3.50000000  uzfcells
  151  2 7 7  0  0       0.10000000  1.00000000E-06       0.10000000       0.30000000       0.11000000       3.50000000  uzfcells
  152  2 7 8  0  0       0.10000000  1.00000000E-06       0.10000000       0.30000000       0.11000000       3.50000000  uzfcells
  153  2 7 9  0  0       0.10000000  1.00000000E-06       0.20000000       0.30000000       0.21000000       3.50000000  uzfcells
  154  2 8 2  0  0       0.10000000  1.00000000E-06       0.20000000       0.30000000       0.21000000       3.50000000  uzfcells
  155  2 8 3  0  0       0.10000000  1.00000000E-06       0.20000000       0.30000000       0.21000000       3.50000000  uzfcells
  156  2 8 4  0  0       0.10000000  1.00000000E-06       0.10000000       0.30000000       0.11000000       3.50000000  ag
  157  2 8 5  0  0       0.10000000  1.00000000E-06       0.10000000       0.30000000       0.11000000       3.50000000  ag
  158  2 8 6  0  0       0.10000000  1.00000000E-06       0.10000000       0.30000000       0.11000000       3.50000000  uzfcells
  159  2 8 7  0  0       0.10000000  1.00000000E-06       0.10000000       0.30000000       0.11000000       3.50000000  uzfcells
  160  2 8 8  0  0       0.10000000  1.00000000E-06       0.20000000       0.30000000       0.21000000       3.50000000  uzfcells
  161  2 8 9  0  0       0.10000000  1.00000000E-06       0.20000000       0.30000000       0.21000000       3.50000000  uzfcells
  162  2 9 2  0  0       0.10000000  1.00000000E-06       0.20000000       0.30000000       0.21000000       3.50000000  uzfcells
  163  2 9 3  0  0       0.10000000  1.00000000E-06       0.20000000       0.30000000       0.21000000       3.50000000  uzfcells
  164  2 9 4  0  0       0.10000000  1.00000000E-06       0.10000000       0.30000000       0.11000000       3.50000000  ag
  165  2 9 5  0  0       0.10000000  1.00000000E-06       0.10000000       0.30000000       0.11000000       3.50000000  ag
  166  2 9 6  0  0       0.10000000  1.00000000E-06       0.10000000       0.30000000       0.11000000       3.50000000  uzfcells
  167  2 9 7  0  0       0.10000000  1.00000000E-06       0.10000000       0.30000000       0.11000000       3.50000000  uzfcells
  168  2 9 8  0  0       0.10000000  1.00000000E-06       0.20000000       0.30000000       0.21000000       3.50000000  uzfcells
  169  2 9 9  0  0       0.10000000  1.00000000E-06       0.20000000       0.30000000       0.21000000       3.50000000  uzfcells
  170  2 10 2  0  0       0.10000000  1.00000000E-06       0.20000000       0.30000000       0.21000000       3.50000000  uzfcells
  171  2 10 3  0  0       0.10000000  1.00000000E-06       0.20000000       0.30000000       0.21000000       3.50000000  uzfcells
  172  2 10 4  0  0       0.10000000  1.00000000E-06       0.10000000       0.30000000       0.11000000       3.50000000  ag
  173  2 10 5  0  0       0.10000000  1.00000000E-06       0.10000000       0.30000000       0.11000000       3.50000000  ag
  174  2 10 6  0  0       0.10000000  1.00000000E-06       0.10000000       0.30000000       0.11000000       3.50000000  uzfcells
  175  2 10 9  0  0       0.10000000  1.00000000E-06       0.20000000       0.30000000       0.21000000       3.50000000  uzfcells
  176  2 10 10  0  0       0.10000000  1.00000000E-06       0.20000000       0.30000000       0.21000000       3.50000000  uzfcells
  177  2 11 2  0  0       0.10000000  1.00000000E-06       0.20000000       0.30000000       0.21000000       3.50000000  uzfcells
  178  2 11 6  0  0       0.10000000  1.00000000E-06       0.10000000       0.30000000       0.11000000       3.50000000  uzfcells
  179  2 11 9  0  0       0.10000000  1.00000000E-06       0.20000000       0.30000000       0.21000000       3.50000000  uzfcells
  180  2 12 1  0  0       0.10000000  1.00000000E-06       0.20000000       0.30000000       0.21000000       3.50000000  uzfcells
  181  2 12 2  0  0       0.10000000  1.00000000E-06       0.20000000       0.30000000       0.21000000       3.50000000  uzfcells
  182  2 12 6  0  0       0.10000000  1.00000000E-06       0.10000000       0.30000000       0.11000000       3.50000000  uzfcells
  183  2 12 7  0  0       0.10000000  1.00000000E-06       0.10000000       0.30000000       0.11000000       3.50000000  uzfcells
  184  2 12 8  0  0       0.10000000  1.00000000E-06       0.20000000       0.30000000       0.21000000       3.50000000  uzfcells
  185  2 12 9  0  0       0.10000000  1.00000000E-06       0.20000000       0.30000000       0.21000000       3.50000000  uzfcells
  186  2 13 1  0  0       0.10000000  1.00000000E-06       0.10000000       0.30000000       0.11000000       3.50000000  uzfcells
  187  2 13 2  0  0       0.10000000  1.00000000E-06       0.10000000       0.30000000       0.11000000       3.50000000  uzfcells
  188  2 13 6  0  0       0.10000000  1.00000000E-06       0.10000000       0.30000000       0.11000000       3.50000000  uzfcells
  189  2 13 7  0  0       0.10000000  1.00000000E-06       0.10000000       0.30000000       0.11000000       3.50000000  uzfcells
  190  2 13 8  0  0       0.10000000  1.00000000E-06       0.10000000       0.30000000       0.11000000       3.50000000  uzfcells
  191  2 13 9  0  0       0.10000000  1.00000000E-06       0.10000000       0.30000000       0.11000000       3.50000000  uzfcells
  192  2 14 2  0  0       0.10000000  1.00000000E-06       0.20000000       0.30000000       0.21000000       3.50000000  uzfcells
  193  2 14 6  0  0       0.10000000  1.00000000E-06       0.20000000       0.30000000       0.21000000       3.50000000  uzfcells
  194  2 14 7  0  0       0.10000000  1.00000000E-06       0.20000000       0.30000000       0.21000000       3.50000000  uzfcells
  195  2 14 8  0  0       0.10000000  1.00000000E-06       0.20000000       0.30000000       0.21000000       3.50000000  uzfcells
  196  2 14 9  0  0       0.10000000  1.00000000E-06       0.10000000       0.30000000       0.11000000       3.50000000  uzfcells
  197  2 15 3  0  0       0.10000000  1.00000000E-06       0.20000000       0.30000000       0.21000000       3.50000000  uzfcells
  198  2 15 4  0  0       0.10000000  1.00000000E-06       0.20000000       0.30000000       0.21000000       3.50000000  uzfcells
  199  2 15 5  0  0       0.10000000  1.00000000E-06       0.20000000       0.30000000       0.21000000       3.50000000  uzfcells
  200  2 15 6  0  0       0.10000000  1.00000000E-06       0.20000000       0.30000000       0.21000000       3.50000000  uzfcells
END packagedata

BEGIN period  1
  1  3.34e-10  1e-08  15.0  0.100005  0.0  0.0  0.0
  2  6.68e-10  1e-08  15.0  0.100005  0.0  0.0  0.0
  3  6.68e-10  1e-08  15.0  0.20001  0.0  0.0  0.0
  4  3.34e-10  1e-08  15.0  0.100005  0.0  0.0  0.0
  5  6.68e-10  1e-08  15.0  0.100005  0.0  0.0  0.0
  6  2.68e-09  1e-08  15.0  0.20001  0.0  0.0  0.0
  7  2.68e-09  1e-08  15.0  0.20001  0.0  0.0  0.0
  8  1.67e-09  1e-08  15.0  0.20001  0.0  0.0  0.0
  9  1.67e-09  1e-08  15.0  0.20001  0.0  0.0  0.0
  10  3.34e-10  1e-08  15.0  0.100005  0.0  0.0  0.0
  11  3.34e-10  1e-08  15.0  0.100005  0.0  0.0  0.0
  12  2.68e-09  1e-08  15.0  0.20001  0.0  0.0  0.0
  13  2.68e-09  1e-08  15.0  0.20001  0.0  0.0  0.0
  14  1.67e-09  1e-08  15.0  0.20001  0.0  0.0  0.0
  15  1.67e-09  1e-08  15.0  0.20001  0.0  0.0  0.0
  16  2.68e-09  1e-08  15.0  0.20001  0.0  0.0  0.0
  17  1.67e-09  1e-08  15.0  0.20001  0.0  0.0  0.0
  18  3.34e-10  1e-08  15.0  0.20001  0.0  0.0  0.0
  19  3.34e-10  1e-08  15.0  0.100005  0.0  0.0  0.0
  20  3.34e-10  1e-08  15.0  0.100005  0.0  0.0  0.0
  21  3.34e-10  1e-08  15.0  0.100005  0.0  0.0  0.0
  22  3.34e-10  1e-08  15.0  0.20001  0.0  0.0  0.0
  23  3.34e-10  1e-08  15.0  0.20001  0.0  0.0  0.0
  24  6.68e-10  1e-08  15.0  0.20001  0.0  0.0  0.0
  25  2.68e-09  1e-08  15.0  0.20001  0.0  0.0  0.0
  26  1.67e-09  1e-08  15.0  0.20001  0.0  0.0  0.0
  27  3.34e-10  1e-08  15.0  0.20001  0.0  0.0  0.0
  28  3.34e-10  1e-08  15.0  0.100005  0.0  0.0  0.0
  29  3.34e-10  1e-08  15.0  0.100005  0.0  0.0  0.0
  30  3.34e-10  1e-08  15.0  0.100005  0.0  0.0  0.0
  31  3.34e-10  1e-08  15.0  0.100005  0.0  0.0  0.0
  32  3.34e-10  1e-08  15.0  0.100005  0.0  0.0  0.0
  33  3.34e-10  1e-08  15.0  0.100005  0.0  0.0  0.0
  34  3.34e-10  1e-08  15.0  0.100005  0.0  0.0  0.0
  35  2.68e-09  1e-08  15.0  0.20001  0.0  0.0  0.0
  36  1.67e-09  1e-08  15.0  0.20001  0.0  0.0  0.0
  37  1.67e-09  1e-08  15.0  0.20001  0.0  0.0  0.0
  38  6.68e-10  1e-08  15.0  0.100005  0.0  0.0  0.0
  39  6.68e-10  1e-08  15.0  0.100005  0.0  0.0  0.0
  40  3.34e-10  1e-08  15.0  0.100005  0.0  0.0  0.0
  41  3.34e-10  1e-08  15.0  0.100005  0.0  0.0  0.0
  42  3.34e-10  1e-08  15.0  0.100005  0.0  0.0  0.0
  43  3.34e-10  1e-08  15.0  0.20001  0.0  0.0  0.0
  44  1.67e-09  1e-08  15.0  0.20001  0.0  0.0  0.0
  45  2.68e-09  1e-08  15.0  0.20001  0.0  0.0  0.0
  46  1.67e-09  1e-08  15.0  0.20001  0.0  0.0  0.0
  47  1.67e-09  1e-08  15.0  0.20001  0.0  0.0  0.0
  48  6.68e-10  1e-08  15.0  0.100005  0.0  0.0  0.0
  49  6.68e-10  1e-08  15.0  0.100005  0.0  0.0  0.0
  50  3.34e-10  1e-08  15.0  0.100005  0.0  0.0  0.0
  51  3.34e-10  1e-08  15.0  0.100005  0.0  0.0  0.0
  52  6.68e-10  1e-08  15.0  0.100005  0.0  0.0  0.0
  53  6.68e-10  1e-08  15.0  0.20001  0.0  0.0  0.0
  54  1.67e-09  1e-08  15.0  0.20001  0.0  0.0  0.0
  55  1.67e-09  1e-08  15.0  0.20001  0.0  0.0  0.0
  56  6.68e-10  1e-08  15.0  0.100005  0.0  0.0  0.0
  57  6.68e-10  1e-08  15.0  0.100005  0.0  0.0  0.0
  58  3.34e-10  1e-08  15.0  0.100005  0.0  0.0  0.0
  59  3.34e-10  1e-08  15.0  0.100005  0.0  0.0  0.0
  60  6.68e-10  1e-08  15.0  0.20001  0.0  0.0  0.0
  61  1.67e-09  1e-08  15.0  0.20001  0.0  0.0  0.0
  62  1.67e-09  1e-08  15.0  0.20001  0.0  0.0  0.0
  63  1.67e-09  1e-08  15.0  0.20001  0.0  0.0  0.0
  64  6.68e-10  1e-08  15.0  0.100005  0.0  0.0  0.0
  65  6.68e-10  1e-08  15.0  0.100005  0.0  0.0  0.0
  66  3.34e-10  1e-08  15.0  0.100005  0.0  0.0  0.0
  67  3.34e-10  1e-08  15.0  0.100005  0.0  0.0  0.0
  68  6.68e-10  1e-08  15.0  0.20001  0.0  0.0  0.0