# File generated by Flopy version 3.3.5 on 03/04/2022 at 11:17:39.
BEGIN griddata
  strt  LAYERED
    INTERNAL  FACTOR  1.0
        1092.87000000    1089.43000000    6999.00000000    6999.00000000    6999.00000000    6999.00000000    6999.00000000    6999.00000000    6999.00000000    6999.00000000
        1089.87000000    1086.73000000    1081.43000000    6999.00000000    6999.00000000    1072.26000000    1071.49000000    1071.07000000    6999.00000000    6999.00000000
        6999.00000000    1079.41000000    1077.50000000    1073.56000000    1072.50000000    1070.59000000    1069.10000000    1068.32000000    6999.00000000    6999.00000000
        1069.12000000    1070.66000000    1070.20000000    1067.05000000    1065.48000000    1063.65000000    1063.88000000    1065.91000000    1066.06000000    6999.00000000
        1064.95000000    1063.94000000    1062.94000000    1061.50000000    1060.83000000    1060.79000000    1060.23000000    1062.03000000    1065.68000000    1068.13000000
        1059.82000000    1058.31000000    1057.19000000    1056.43000000    1056.30000000    1056.94000000    1057.23000000    1059.11000000    1061.92000000    1065.58000000
        1056.08000000    1052.96000000    1051.74000000    1051.20000000    1051.27000000    1051.88000000    1053.22000000    1055.48000000    1056.49000000    6999.00000000
        6999.00000000    1046.30000000    1045.75000000    1045.55000000    1045.76000000    1046.46000000    1047.82000000    1049.85000000    1050.40000000    6999.00000000
        6999.00000000    1039.06000000    1039.13000000    1039.49000000    1040.04000000    1041.05000000    1041.64000000    1042.86000000    1044.05000000    6999.00000000
        6999.00000000    1031.09000000    1031.79000000    1033.26000000    1034.32000000    1035.44000000    1036.51000000    1037.62000000    1039.32000000    1041.59000000
        6999.00000000    1021.43000000    1023.10000000    1026.84000000    1028.70000000    1030.49000000    1032.09000000    1033.56000000    1035.71000000    6999.00000000
        1001.17000000    1009.24000000    1014.51000000    1019.62000000    1023.14000000    1026.18000000    1028.57000000    1030.37000000    1034.29000000    6999.00000000
         994.53000000     999.96000000    1006.66000000    1012.88000000    1018.70000000    1024.27000000    1029.09000000    1034.10000000    1036.13000000    6999.00000000
        6999.00000000    1004.01000000    1008.95000000    1013.70000000    1018.89000000    1024.03000000    1029.48000000    1035.09000000    1039.34000000    6999.00000000
        6999.00000000    6999.00000000    1011.92000000    1015.10000000    1019.13000000    1022.39000000    6999.00000000    6999.00000000    6999.00000000    6999.00000000
    INTERNAL  FACTOR  1.0
        1092.87000000    1089.43000000    6999.00000000    6999.00000000    6999.00000000    6999.00000000    6999.00000000    6999.00000000    6999.00000000    6999.00000000
        1089.87000000    1086.73000000    1081.43000000    6999.00000000    6999.00000000    1072.26000000    1071.49000000    1071.07000000    6999.00000000    6999.00000000
        6999.00000000    1079.41000000    1077.50000000    1073.56000000    1072.50000000    1070.59000000    1069.10000000    1068.32000000    6999.00000000    6999.00000000
        1069.12000000    1070.66000000    1070.20000000    1067.05000000    1065.48000000    1063.65000000    1063.88000000    1065.91000000    1066.06000000    6999.00000000
        1064.95000000    1063.94000000    1062.94000000    1061.50000000    1060.83000000    1060.79000000    1060.23000000    1062.03000000    1065.68000000    1068.13000000
        1059.82000000    1058.31000000    1057.19000000    1056.43000000    1056.30000000    1056.94000000    1057.23000000    1059.11000000    1061.92000000    1065.58000000
        1056.08000000    1052.96000000    1051.74000000    1051.20000000    1051.27000000    1051.88000000    1053.22000000    1055.48000000    1056.49000000    6999.00000000
        6999.00000000    1046.30000000    1045.75000000    1045.55000000    1045.76000000    1046.46000000    1047.82000000    1049.85000000    1050.40000000    6999.00000000
        6999.00000000    1039.06000000    1039.13000000    1039.49000000    1040.04000000    1041.05000000    1041.64000000    1042.86000000    1044.05000000    6999.00000000
        6999.00000000    1031.09000000    1031.79000000    1033.26000000    1034.32000000    1035.44000000    1036.51000000    1037.62000000    1039.32000000    1041.59000000
        6999.00000000    1021.43000000    1023.10000000    1026.84000000    1028.70000000    1030.49000000    1032.09000000    1033.56000000    1035.71000000    6999.00000000
        1001.17000000    1009.24000000    1014.51000000    1019.62000000    1023.14000000    1026.18000000    1028.57000000    1030.37000000    1034.29000000    6999.00000000
         994.53000000     999.96000000    1006.66000000    1012.88000000    1018.70000000    1024.27000000    1029.09000000    1034.10000000    1036.13000000    6999.00000000
        6999.00000000    1004.01000000    1008.95000000    1013.70000000    1018.89000000    1024.03000000    1029.48000000    1035.09000000    1039.34000000    6999.00000000
        6999.00000000    6999.00000000    1011.92000000    1015.10000000    1019.13000000    1022.39000000    6999.00000000    6999.00000000    6999.00000000    6999.00000000
END griddata

