# File generated by Flopy version 3.3.5 on 03/04/2022 at 11:17:39.
BEGIN options
  TIME_UNITS  seconds
END options

BEGIN dimensions
  NPER  24
END dimensions

BEGIN perioddata
  2.62800000E+06  1       1.00000000
  2.62800000E+06  15       1.00000000
  2.62800000E+06  15       1.00000000
  2.62800000E+06  15       1.00000000
  2.62800000E+06  15       1.00000000
  2.62800000E+06  15       1.00000000
  2.62800000E+06  15       1.00000000
  2.62800000E+06  15       1.00000000
  2.62800000E+06  15       1.00000000
  2.62800000E+06  15       1.00000000
  2.62800000E+06  15       1.00000000
  2.62800000E+06  15       1.00000000
  2.62800000E+06  15       1.00000000
  2.62800000E+06  15       1.00000000
  2.62800000E+06  15       1.00000000
  2.62800000E+06  15       1.00000000
  2.62800000E+06  15       1.00000000
  2.62800000E+06  15       1.00000000
  2.62800000E+06  15       1.00000000
  2.62800000E+06  15       1.00000000
  2.62800000E+06  15       1.00000000
  2.62800000E+06  15       1.00000000
  2.62800000E+06  15       1.00000000
  2.62800000E+06  15       1.00000000
END perioddata

