# File generated by Flopy version 3.3.5 on 03/04/2022 at 11:17:39.
BEGIN options
END options

BEGIN timing
  TDIS6  ex-gwf-sfr-p01b.tdis
END timing

BEGIN models
  gwf6  ex-gwf-sfr-p01b.nam  ex-gwf-sfr-p01b
END models

BEGIN exchanges
END exchanges

BEGIN solutiongroup  1
  ims6  ex-gwf-sfr-p01b.ims  ex-gwf-sfr-p01b
END solutiongroup  1

