# File generated by Flopy version 3.3.5 on 03/04/2022 at 11:18:07.
BEGIN options
  SAVE_SPECIFIC_DISCHARGE
  SAVE_SATURATION
END options

BEGIN griddata
  icelltype
    CONSTANT  1
  k  LAYERED
    INTERNAL  FACTOR  1.0
           0.84758400       0.84758400       0.84758400       0.84758400       0.84758400       0.84758400       0.84758400       0.84758400       0.84758400       0.84758400       0.84758400       0.84758400       0.84758400       0.84758400       0.84758400       0.84758400       0.84758400       0.84758400       0.84758400       0.84758400       0.84758400       0.84758400       0.84758400       0.84758400       0.84758400       0.84758400       0.84758400       0.84758400       0.84758400       0.84758400       0.84758400       0.84758400       0.84758400       0.84758400       0.84758400       0.84758400       0.84758400       0.84758400       0.84758400       0.84758400       0.84758400       0.84758400       0.84758400       0.84758400       0.84758400       0.84758400       0.84758400       0.84758400       0.84758400       0.84758400       0.84758400       0.84758400       0.84758400       0.84758400       0.84758400       0.84758400       0.84758400       0.84758400       0.84758400       0.84758400       0.84758400       0.84758400       0.84758400       0.84758400       0.84758400       0.84758400       0.84758400       0.84758400       0.84758400       0.84758400       0.84758400       0.84758400       0.84758400       0.84758400       0.84758400       0.84758400       0.84758400       0.84758400       0.84758400       0.84758400       0.84758400       0.84758400       0.84758400       0.84758400       0.84758400       0.84758400       0.84758400       0.84758400       0.84758400       0.84758400       0.84758400       0.84758400       0.84758400       0.84758400       0.84758400       0.84758400       0.84758400       0.84758400       0.84758400       0.84758400       0.84758400       0.84758400       0.84758400       0.84758400       0.84758400       0.84758400       0.84758400       0.84758400       0.84758400       0.84758400       0.84758400       0.84758400       0.84758400       0.84758400       0.84758400       0.84758400       0.84758400       0.84758400       0.84758400       0.84758400       0.84758400       0.84758400       0.84758400       0.84758400       0.84758400       0.84758400       0.84758400       0.84758400       0.84758400       0.84758400       0.84758400       0.84758400       0.84758400       0.84758400       0.84758400       0.84758400       0.84758400       0.84758400       0.84758400       0.84758400       0.84758400       0.84758400       0.84758400       0.84758400       0.84758400       0.84758400       0.84758400       0.84758400       0.84758400       0.84758400       0.84758400       0.84758400       0.84758400       0.84758400       0.84758400       0.84758400       0.84758400       0.84758400       0.84758400       0.84758400       0.84758400       0.84758400       0.84758400       0.84758400       0.84758400       0.84758400       0.84758400       0.84758400       0.84758400       0.84758400       0.84758400       0.84758400       0.84758400       0.84758400       0.84758400       0.84758400       0.84758400       0.84758400       0.84758400       0.84758400       0.84758400       0.84758400       0.84758400       0.84758400       0.84758400       0.84758400       0.84758400       0.84758400       0.84758400       0.84758400       0.84758400       0.84758400       0.84758400       0.84758400       0.84758400       0.84758400       0.84758400       0.84758400       0.84758400       0.84758400       0.84758400       0.84758400       0.84758400       0.84758400       0.84758400       0.84758400       0.84758400       0.84758400       0.84758400       0.84758400       0.84758400       0.84758400       0.84758400       0.84758400       0.84758400       0.84758400       0.84758400       0.84758400       0.84758400       0.84758400       0.84758400       0.84758400       0.84758400       0.84758400       0.84758400       0.84758400       0.84758400       0.84758400       0.84758400       0.84758400       0.84758400       0.84758400       0.84758400       0.84758400       0.84758400       0.84758400       0.84758400       0.84758400       0.84758400       0.84758400       0.84758400       0.84758400       0.84758400       0.84758400       0.84758400       0.84758400       0.84758400       0.84758400       0.84758400       0.84758400       0.84758400       0.84758400       0.84758400       0.84758400       0.84758400       0.84758400       0.84758400       0.84758400       0.84758400       0.84758400       0.84758400       0.84758400       0.84758400       0.84758400       0.84758400       0.84758400       0.84758400       0.84758400       0.84758400       0.84758400       0.84758400       0.84758400       0.84758400       0.84758400       0.84758400       0.84758400       0.84758400       0.84758400       0.84758400       0.84758400       0.84758400       0.84758400       0.84758400       0.84758400       0.84758400       0.84758400       0.84758400       0.84758400       0.84758400       0.84758400       0.84758400       0.84758400       0.84758400       0.84758400       0.84758400       0.84758400       0.84758400       0.84758400       0.84758400       0.84758400       0.84758400       0.84758400       0.84758400       0.84758400       0.84758400       0.84758400       0.84758400       0.84758400       0.84758400       0.84758400       0.84758400       0.84758400       0.84758400       0.84758400       0.84758400       0.84758400       0.84758400       0.84758400       0.84758400       0.84758400       0.84758400       0.84758400       0.84758400       0.84758400       0.84758400       0.84758400       0.84758400       0.84758400       0.84758400       0.84758400       0.84758400       0.84758400       0.84758400       0.84758400       0.84758400       0.84758400       0.84758400       0.84758400       0.84758400       0.84758400       0.84758400       0.84758400       0.84758400       0.84758400       0.84758400       0.84758400       0.84758400       0.84758400       0.84758400       0.84758400       0.84758400       0.84758400       0.84758400       0.84758400       0.84758400       0.84758400       0.84758400       0.84758400       0.84758400       0.84758400       0.84758400       0.84758400       0.84758400       0.84758400       0.84758400       0.84758400       0.84758400       0.84758400       0.84758400       0.84758400       0.84758400       0.84758400       0.84758400       0.84758400       0.84758400       0.84758400       0.84758400       0.84758400       0.84758400       0.84758400       0.84758400       0.84758400       0.84758400       0.84758400       0.84758400       0.84758400       0.84758400       0.84758400       0.84758400       0.84758400       0.84758400       0.84758400       0.84758400       0.84758400       0.84758400       0.84758400       0.84758400       0.84758400       0.84758400       0.84758400
    INTERNAL  FACTOR  1.0
           0.84758400       0.84758400       0.84758400       0.84758400       0.84758400       0.84758400       0.84758400       0.84758400       0.84758400       0.84758400       0.84758400       0.84758400       0.84758400       0.84758400       0.84758400       0.84758400       0.84758400       0.84758400       0.84758400       0.84758400       0.84758400       0.84758400       0.84758400       0.84758400       0.84758400       0.84758400       0.84758400       0.84758400       0.84758400       0.84758400       0.84758400       0.84758400       0.84758400       0.84758400       0.84758400       0.84758400       0.84758400       0.84758400       0.84758400       0.84758400       0.84758400       0.84758400       0.84758400       0.84758400       0.84758400       0.84758400       0.84758400       0.84758400       0.84758400       0.84758400       0.84758400       0.84758400       0.84758400       0.84758400       0.84758400       0.84758400       0.84758400       0.84758400       0.84758400       0.84758400       0.84758400       0.84758400       0.84758400       0.84758400       0.84758400       0.84758400       0.84758400       0.84758400       0.84758400       0.84758400       0.84758400       0.84758400       0.84758400       0.84758400       0.84758400       0.84758400       0.84758400       0.84758400       0.84758400       0.84758400       0.84758400       0.84758400       0.84758400       0.84758400       0.84758400       0.84758400       0.84758400       0.84758400       0.84758400       0.84758400       0.84758400       0.84758400       0.84758400       0.84758400       0.84758400       0.84758400       0.84758400       0.84758400       0.84758400       0.84758400       0.84758400       0.84758400       0.84758400       0.84758400       0.84758400       0.84758400       0.84758400       0.84758400       0.84758400       0.84758400       0.84758400       0.84758400       0.84758400       0.84758400       0.84758400       0.84758400       0.84758400       0.84758400       0.84758400       0.84758400       0.84758400       0.84758400       0.84758400       0.84758400       0.84758400       0.84758400       0.84758400       0.84758400       0.84758400       0.84758400       0.84758400       0.84758400       0.84758400       0.84758400       0.84758400       0.84758400       0.84758400       0.84758400       0.84758400       0.84758400       0.84758400       0.84758400       0.84758400       0.84758400       0.84758400       0.84758400       0.84758400       0.84758400       0.84758400       0.84758400       0.84758400       0.84758400       0.84758400       0.84758400       0.84758400       0.84758400       0.84758400       0.84758400       0.84758400       0.84758400       0.84758400       0.84758400       0.84758400       0.84758400       0.84758400       0.84758400       0.84758400       0.84758400       0.84758400       0.84758400       0.84758400       0.84758400       0.84758400       0.84758400       0.84758400       0.84758400       0.84758400       0.84758400       0.84758400       0.84758400       0.84758400       0.84758400       0.84758400       0.84758400       0.84758400       0.84758400       0.84758400       0.84758400       0.84758400       0.84758400       0.84758400       0.84758400       0.84758400       0.84758400       0.84758400       0.84758400       0.84758400       0.84758400       0.84758400       0.84758400       0.84758400       0.84758400       0.84758400       0.84758400       0.84758400       0.84758400       0.84758400       0.84758400       0.84758400       0.84758400       0.84758400       0.84758400       0.84758400       0.84758400       0.84758400       0.84758400       0.84758400       0.84758400       0.84758400       0.84758400       0.84758400       0.84758400       0.84758400       0.84758400       0.84758400       0.84758400       0.84758400       0.84758400       0.84758400       0.84758400       0.84758400       0.84758400       0.84758400       0.84758400       0.84758400       0.84758400       0.84758400       0.84758400       0.84758400       0.84758400       0.84758400       0.84758400       0.84758400       0.84758400       0.84758400       0.84758400       0.84758400       0.84758400       0.84758400       0.84758400       0.84758400       0.84758400       0.84758400       0.84758400       0.84758400       0.84758400       0.84758400       0.84758400       0.84758400       0.84758400       0.84758400       0.84758400       0.84758400       0.84758400       0.84758400       0.84758400       0.84758400       0.84758400       0.84758400       0.84758400       0.84758400       0.84758400       0.84758400       0.84758400       0.84758400       0.84758400       0.84758400       0.84758400       0.84758400       0.84758400       0.84758400       0.84758400       0.84758400       0.84758400       0.84758400       0.84758400       0.84758400       0.84758400       0.84758400       0.84758400       0.84758400       0.84758400       0.84758400       0.84758400       0.84758400       0.84758400       0.84758400       0.84758400       0.84758400       0.84758400       0.84758400       0.84758400       0.84758400       0.84758400       0.84758400       0.84758400       0.84758400       0.84758400       0.84758400       0.84758400       0.84758400       0.84758400       0.84758400       0.84758400       0.84758400       0.84758400       0.84758400       0.84758400       0.84758400       0.84758400       0.84758400       0.84758400       0.84758400       0.84758400       0.84758400       0.84758400       0.84758400       0.84758400       0.84758400       0.84758400       0.84758400       0.84758400       0.84758400       0.84758400       0.84758400       0.84758400       0.84758400       0.84758400       0.84758400       0.84758400       0.84758400       0.84758400       0.84758400       0.84758400       0.84758400       0.84758400       0.84758400       0.84758400       0.84758400       0.84758400       0.84758400       0.84758400       0.84758400       0.84758400       0.84758400       0.84758400       0.84758400       0.84758400       0.84758400       0.84758400       0.84758400       0.84758400       0.84758400       0.84758400       0.84758400       0.84758400       0.84758400       0.84758400       0.84758400       0.84758400       0.84758400       0.84758400       0.84758400       0.84758400       0.84758400       0.84758400       0.84758400       0.84758400       0.84758400       0.84758400       0.84758400       0.84758400       0.84758400       0.84758400       0.84758400       0.84758400       0.84758400       0.84758400       0.84758400       0.84758400       0.84758400       0.84758400       0.84758400       0.84758400       0.84758400       0.84758400       0.84758400       0.84758400       0.84758400       0.84758400
    INTERNAL  FACTOR  1.0
           0.84758400       0.84758400       0.84758400       0.84758400       0.84758400       0.84758400       0.84758400       0.84758400       0.84758400       0.84758400       0.84758400       0.84758400       0.84758400       0.84758400       0.84758400       0.84758400       0.84758400       0.84758400       0.84758400       0.84758400       0.84758400       0.84758400       0.84758400       0.84758400       0.84758400       0.84758400       0.84758400       0.84758400       0.84758400       0.84758400       0.84758400       0.84758400       0.84758400       0.84758400       0.84758400       0.84758400       0.84758400       0.84758400       0.84758400       0.84758400       0.84758400       0.84758400       0.84758400       0.84758400       0.84758400       0.84758400       0.84758400       0.84758400       0.84758400       0.84758400       0.84758400       0.84758400       0.84758400       0.84758400       0.84758400       0.84758400       0.84758400       0.84758400       0.84758400       0.84758400       0.84758400       0.84758400       0.84758400       0.84758400       0.84758400       0.84758400       0.84758400       0.84758400       0.84758400       0.84758400       0.84758400       0.84758400       0.84758400       0.84758400       0.84758400       0.84758400       0.84758400       0.84758400       0.84758400       0.84758400       0.84758400       0.84758400       0.84758400       0.84758400       0.84758400       0.84758400       0.84758400       0.84758400       0.84758400       0.84758400       0.84758400       0.84758400       0.84758400       0.84758400       0.84758400       0.84758400       0.84758400       0.84758400       0.84758400       0.84758400       0.84758400       0.84758400       0.84758400       0.84758400       0.84758400       0.84758400       0.84758400       0.84758400       0.84758400       0.84758400       0.84758400       0.84758400       0.84758400       0.84758400       0.84758400       0.84758400       0.84758400       0.84758400       0.84758400       0.84758400       0.84758400       0.84758400       0.84758400       0.84758400       0.84758400       0.84758400       0.84758400       0.84758400       0.84758400       0.84758400       0.84758400       0.84758400       0.84758400       0.84758400       0.84758400       0.84758400       0.84758400       0.84758400       0.84758400       0.84758400       0.84758400       0.84758400       0.84758400       0.84758400       0.84758400       0.84758400       0.84758400       0.84758400       0.84758400       0.84758400       0.84758400       0.84758400       0.84758400       0.84758400       0.84758400       0.84758400       0.84758400       0.84758400       0.84758400       0.84758400       0.84758400       0.84758400       0.84758400       0.84758400       0.84758400       0.84758400       0.84758400       0.84758400       0.84758400       0.84758400       0.84758400       0.84758400       0.84758400       0.84758400       0.84758400       0.84758400       0.84758400       0.84758400       0.84758400       0.84758400       0.84758400       0.84758400       0.84758400       0.84758400       0.84758400       0.84758400       0.84758400       0.84758400       0.84758400       0.84758400       0.84758400       0.84758400       0.84758400       0.84758400       0.84758400       0.84758400       0.84758400       0.84758400       0.84758400       0.84758400       0.84758400       0.84758400       0.84758400       0.84758400       0.84758400       0.84758400       0.84758400       0.84758400       0.84758400       0.84758400       0.84758400       0.84758400       0.84758400       0.84758400       0.84758400       0.84758400       0.84758400       0.84758400       0.84758400       0.84758400       0.84758400       0.84758400       0.84758400       0.84758400       0.84758400       0.84758400       0.84758400       0.84758400       0.84758400       0.84758400       0.84758400       0.84758400       0.84758400       0.84758400       0.84758400       0.84758400       0.84758400       0.84758400       0.84758400       0.84758400       0.84758400       0.84758400       0.84758400       0.84758400       0.84758400       0.84758400       0.84758400       0.84758400       0.84758400       0.84758400       0.84758400       0.84758400       0.84758400       0.84758400       0.84758400       0.84758400       0.84758400       0.84758400       0.84758400       0.84758400       0.84758400       0.84758400       0.84758400       0.84758400       0.84758400       0.84758400       0.84758400       0.84758400       0.84758400       0.84758400       0.84758400       0.84758400       0.84758400       0.84758400       0.84758400       0.84758400       0.84758400       0.84758400       0.84758400       0.84758400       0.84758400       0.84758400       0.84758400       0.84758400       0.84758400       0.84758400       0.84758400       0.84758400       0.84758400       0.84758400       0.84758400       0.84758400       0.84758400       0.84758400       0.84758400       0.84758400       0.84758400       0.84758400       0.84758400       0.84758400       0.84758400       0.84758400       0.84758400       0.84758400       0.84758400       0.84758400       0.84758400       0.84758400       0.84758400       0.84758400       0.84758400       0.84758400       0.84758400       0.84758400       0.84758400       0.84758400       0.84758400       0.84758400       0.84758400       0.84758400       0.84758400       0.84758400       0.84758400       0.84758400       0.84758400       0.84758400       0.84758400       0.84758400       0.84758400       0.84758400       0.84758400       0.84758400       0.84758400       0.84758400       0.84758400       0.84758400       0.84758400       0.84758400       0.84758400       0.84758400       0.84758400       0.84758400       0.84758400       0.84758400       0.84758400       0.84758400       0.84758400       0.84758400       0.84758400       0.84758400       0.84758400       0.84758400       0.84758400       0.84758400       0.84758400       0.84758400       0.84758400       0.84758400       0.84758400       0.84758400       0.84758400       0.84758400       0.84758400       0.84758400       0.84758400       0.84758400       0.84758400       0.84758400       0.84758400       0.84758400       0.84758400       0.84758400       0.84758400       0.84758400       0.84758400       0.84758400       0.84758400       0.84758400       0.84758400       0.84758400       0.84758400       0.84758400       0.84758400       0.84758400       0.84758400       0.84758400       0.84758400       0.84758400       0.84758400       0.84758400       0.84758400       0.84758400       0.84758400       0.84758400       0.84758400       0.84758400       0.84758400       0.84758400       0.84758400       0.84758400
    INTERNAL  FACTOR  1.0
           0.84758400       0.84758400       0.84758400       0.84758400       0.84758400       0.84758400       0.84758400       0.84758400       0.84758400       0.84758400       0.84758400       0.84758400       0.84758400       0.84758400       0.84758400       0.84758400       0.84758400       0.84758400       0.84758400       0.84758400       0.84758400       0.84758400       0.84758400       0.84758400       0.84758400       0.84758400       0.84758400       0.84758400       0.84758400       0.84758400       0.84758400       0.84758400       0.84758400       0.84758400       0.84758400       0.84758400       0.84758400       0.84758400       0.84758400       0.84758400       0.84758400       0.84758400       0.84758400       0.84758400       0.84758400       0.84758400       0.84758400       0.84758400       0.84758400       0.84758400       0.84758400       0.84758400       0.84758400       0.84758400       0.84758400       0.84758400       0.84758400       0.84758400       0.84758400       0.84758400       0.84758400       0.84758400       0.84758400       0.84758400       0.84758400       0.84758400       0.84758400       0.84758400       0.84758400       0.84758400       0.84758400       0.84758400       0.84758400       0.84758400       0.84758400       0.84758400       0.84758400       0.84758400       0.84758400       0.84758400       0.84758400       0.84758400       0.84758400       0.84758400       0.84758400       0.84758400       0.84758400       0.84758400       0.84758400       0.84758400       0.84758400       0.84758400       0.84758400       0.84758400       0.84758400       0.84758400       0.84758400       0.84758400       0.84758400       0.84758400       0.84758400       0.84758400       0.84758400       0.84758400       0.84758400       0.84758400       0.84758400       0.84758400       0.84758400       0.84758400       0.84758400       0.84758400       0.84758400       0.84758400       0.84758400       0.84758400       0.84758400       0.84758400       0.84758400       0.84758400       0.84758400       0.84758400       0.84758400       0.84758400       0.84758400       0.84758400       0.84758400       0.84758400       0.84758400       0.84758400       0.84758400       0.84758400       0.84758400       0.84758400       0.84758400       0.84758400       0.84758400       0.84758400       0.84758400       0.84758400       0.84758400       0.84758400       0.84758400       0.84758400       0.84758400       0.84758400       0.84758400       0.84758400       0.84758400       0.84758400       0.84758400       0.84758400       0.84758400       0.84758400       0.84758400       0.84758400       0.84758400       0.84758400       0.84758400       0.84758400       0.84758400       0.84758400       0.84758400       0.84758400       0.84758400       0.84758400       0.84758400       0.84758400       0.84758400       0.84758400       0.84758400       0.84758400       0.84758400       0.84758400       0.84758400       0.84758400       0.84758400       0.84758400       0.84758400       0.84758400       0.84758400       0.84758400       0.84758400       0.84758400       0.84758400       0.84758400       0.84758400       0.84758400       0.84758400       0.84758400       0.84758400       0.84758400       0.84758400       0.84758400       0.84758400       0.84758400       0.84758400       0.84758400       0.84758400       0.84758400       0.84758400       0.84758400       0.84758400       0.84758400       0.84758400       0.84758400       0.84758400       0.84758400       0.84758400       0.84758400       0.84758400       0.84758400       0.84758400       0.84758400       0.84758400       0.84758400       0.84758400       0.84758400       0.84758400       0.84758400       0.84758400       0.84758400       0.84758400       0.84758400       0.84758400       0.84758400       0.84758400       0.84758400       0.84758400       0.84758400       0.84758400       0.84758400       0.84758400       0.84758400       0.84758400       0.84758400       0.84758400       0.84758400       0.84758400       0.84758400       0.84758400       0.84758400       0.84758400       0.84758400       0.84758400       0.84758400       0.84758400       0.84758400       0.84758400       0.84758400       0.84758400       0.84758400       0.84758400       0.84758400       0.84758400       0.84758400       0.84758400       0.84758400       0.84758400       0.84758400       0.84758400       0.84758400       0.84758400       0.84758400       0.84758400       0.84758400       0.84758400       0.84758400       0.84758400       0.84758400       0.84758400       0.84758400       0.84758400       0.84758400       0.84758400       0.84758400       0.84758400       0.84758400       0.84758400       0.84758400       0.84758400       0.84758400       0.84758400       0.84758400       0.84758400       0.84758400       0.84758400       0.84758400       0.84758400       0.84758400       0.84758400       0.84758400       0.84758400       0.84758400       0.84758400       0.84758400       0.84758400       0.84758400       0.84758400       0.84758400       0.84758400       0.84758400       0.84758400       0.84758400       0.84758400       0.84758400       0.84758400       0.84758400       0.84758400       0.84758400       0.84758400       0.84758400       0.84758400       0.84758400       0.84758400       0.84758400       0.84758400       0.84758400       0.84758400       0.84758400       0.84758400       0.84758400       0.84758400       0.84758400       0.84758400       0.84758400       0.84758400       0.84758400       0.84758400       0.84758400       0.84758400       0.84758400       0.84758400       0.84758400       0.84758400       0.84758400       0.84758400       0.84758400       0.84758400       0.84758400       0.84758400       0.84758400       0.84758400       0.84758400       0.84758400       0.84758400       0.84758400       0.84758400       0.84758400       0.84758400       0.84758400       0.84758400       0.84758400       0.84758400       0.84758400       0.84758400       0.84758400       0.84758400       0.84758400       0.84758400       0.84758400       0.84758400       0.84758400       0.84758400       0.84758400       0.84758400       0.84758400       0.84758400       0.84758400       0.84758400       0.84758400       0.84758400       0.84758400       0.84758400       0.84758400       0.84758400       0.84758400       0.84758400       0.84758400       0.84758400       0.84758400       0.84758400       0.84758400       0.84758400       0.84758400       0.84758400       0.84758400       0.84758400       0.84758400       0.84758400       0.84758400       0.84758400       0.84758400       0.84758400       0.84758400       0.84758400       0.84758400       0.84758400       0.84758400       0.84758400
    INTERNAL  FACTOR  1.0