# File generated by Flopy version 3.3.5 on 03/04/2022 at 11:18:07.
BEGIN options
  TIME_UNITS  days
END options

BEGIN dimensions
  NPER  2
END dimensions

BEGIN perioddata
     730.00000000  1       1.00000000
   29270.00000000  1       1.00000000
END perioddata

