# File generated by Flopy version 3.3.5 on 03/04/2022 at 11:18:07.
BEGIN griddata
  strt
    CONSTANT     600.00000000
END griddata

