# File generated by Flopy version 3.3.5 on 03/04/2022 at 11:18:07.
BEGIN options
  LENGTH_UNITS  m
END options

BEGIN dimensions
  NLAY  80
  NROW  1
  NCOL  400
END dimensions

BEGIN griddata
  delr
    CONSTANT      25.00000000
  delc
    CONSTANT       1.00000000
  top
    CONSTANT    2000.00000000
  botm  LAYERED
    CONSTANT    1975.00000000
    CONSTANT    1950.00000000
    CONSTANT    1925.00000000
    CONSTANT    1900.00000000
    CONSTANT    1875.00000000
    CONSTANT    1850.00000000
    CONSTANT    1825.00000000
    CONSTANT    1800.00000000
    CONSTANT    1775.00000000
    CONSTANT    1750.00000000
    CONSTANT    1725.00000000
    CONSTANT    1700.00000000
    CONSTANT    1675.00000000
    CONSTANT    1650.00000000
    CONSTANT    1625.00000000
    CONSTANT    1600.00000000
    CONSTANT    1575.00000000
    CONSTANT    1550.00000000
    CONSTANT    1525.00000000
    CONSTANT    1500.00000000
    CONSTANT    1475.00000000
    CONSTANT    1450.00000000
    CONSTANT    1425.00000000
    CONSTANT    1400.00000000
    CONSTANT    1375.00000000
    CONSTANT    1350.00000000
    CONSTANT    1325.00000000
    CONSTANT    1300.00000000
    CONSTANT    1275.00000000
    CONSTANT    1250.00000000
    CONSTANT    1225.00000000
    CONSTANT    1200.00000000
    CONSTANT    1175.00000000
    CONSTANT    1150.00000000
    CONSTANT    1125.00000000
    CONSTANT    1100.00000000
    CONSTANT    1075.00000000
    CONSTANT    1050.00000000
    CONSTANT    1025.00000000
    CONSTANT    1000.00000000
    CONSTANT     975.00000000
    CONSTANT     950.00000000
    CONSTANT     925.00000000
    CONSTANT     900.00000000
    CONSTANT     875.00000000
    CONSTANT     850.00000000
    CONSTANT     825.00000000
    CONSTANT     800.00000000
    CONSTANT     775.00000000
    CONSTANT     750.00000000
    CONSTANT     725.00000000
    CONSTANT     700.00000000
    CONSTANT     675.00000000
    CONSTANT     650.00000000
    CONSTANT     625.00000000
    CONSTANT     600.00000000
    CONSTANT     575.00000000
    CONSTANT     550.00000000
    CONSTANT     525.00000000
    CONSTANT     500.00000000
    CONSTANT     475.00000000
    CONSTANT     450.00000000
    CONSTANT     425.00000000
    CONSTANT     400.00000000
    CONSTANT     375.00000000
    CONSTANT     350.00000000
    CONSTANT     325.00000000
    CONSTANT     300.00000000
    CONSTANT     275.00000000
    CONSTANT     250.00000000
    CONSTANT     225.00000000
    CONSTANT     200.00000000
    CONSTANT     175.00000000
    CONSTANT     150.00000000
    CONSTANT     125.00000000
    CONSTANT     100.00000000
    CONSTANT      75.00000000
    CONSTANT      50.00000000
    CONSTANT      25.00000000
    CONSTANT       0.00000000
END griddata

