# File generated by Flopy version 3.3.5 on 03/04/2022 at 11:18:07.
BEGIN options
  PRINT_INPUT
  PRINT_FLOWS
END options

BEGIN dimensions
  MAXBOUND  36
END dimensions

BEGIN period  1
  49 1 1     800.00000000
  50 1 1     800.00000000
  51 1 1     800.00000000
  52 1 1     800.00000000
  53 1 1     800.00000000
  54 1 1     800.00000000
  55 1 1     800.00000000
  56 1 1     800.00000000
  57 1 1     800.00000000
  58 1 1     800.00000000
  59 1 1     800.00000000
  60 1 1     800.00000000
  61 1 1     800.00000000
  62 1 1     800.00000000
  63 1 1     800.00000000
  64 1 1     800.00000000
  65 1 1     800.00000000
  66 1 1     800.00000000
  67 1 1     800.00000000
  68 1 1     800.00000000
  69 1 1     800.00000000
  70 1 1     800.00000000
  71 1 1     800.00000000
  72 1 1     800.00000000
  73 1 1     800.00000000
  74 1 1     800.00000000
  75 1 1     800.00000000
  76 1 1     800.00000000
  77 1 1     800.00000000
  78 1 1     800.00000000
  79 1 1     800.00000000
  80 1 1     800.00000000
  77 1 400     100.00000000
  78 1 400     100.00000000
  79 1 400     100.00000000
  80 1 400     100.00000000
END period  1

