# File generated by Flopy version 3.3.5 on 03/04/2022 at 11:18:50.
BEGIN options
  SAVE_FLOWS
END options

BEGIN packages
  DIS6  .\trans.dis  dis
  IC6  .\trans.ic  ic
  MST6  .\trans.mst  mst
  ADV6  .\trans.adv  adv
  DSP6  .\trans.dsp  dsp
  FMI6  .\trans.fmi  fmi
  MWT6  .\trans.mwt  maw-1
  MVT6  .\trans.mvt  mvt
  SSM6  .\trans.ssm  ssm
  OC6  .\trans.oc  oc
END packages

