# File generated by Flopy version 3.3.5 on 03/04/2022 at 11:18:50.
BEGIN options
END options

BEGIN griddata
  alh
    CONSTANT      10.00000000
  ath1
    CONSTANT       3.00000000
  atv
    CONSTANT       0.30000000
END griddata

