# File generated by Flopy version 3.3.5 on 03/04/2022 at 11:18:04.
BEGIN options
  XT3D_OFF
END options

BEGIN griddata
  diffc
    CONSTANT       0.57024000
END griddata

