# File generated by Flopy version 3.3.5 on 03/04/2022 at 11:18:04.
BEGIN options
  PRINT_OPTION  all
END options

BEGIN nonlinear
  OUTER_DVCLOSE  1.00000000E-10
  OUTER_MAXIMUM  100
  UNDER_RELAXATION  none
END nonlinear

BEGIN linear
  INNER_MAXIMUM  300
  INNER_DVCLOSE  1.00000000E-10
  inner_rclose  1.00000000E-06
  LINEAR_ACCELERATION  bicgstab
  RELAXATION_FACTOR       0.97000000
  SCALING_METHOD  none
  REORDERING_METHOD  none
END linear

