# File generated by Flopy version 3.3.5 on 03/04/2022 at 11:18:16.
BEGIN options
  LENGTH_UNITS  m
END options

BEGIN dimensions
  NLAY  40
  NCPL  695
  NVERT  403
END dimensions

BEGIN griddata
  top
    CONSTANT       0.00000000
  botm  LAYERED
    CONSTANT      -0.05000000
    CONSTANT      -0.10000000
    CONSTANT      -0.15000000
    CONSTANT      -0.20000000
    CONSTANT      -0.25000000
    CONSTANT      -0.30000000
    CONSTANT      -0.35000000
    CONSTANT      -0.40000000
    CONSTANT      -0.45000000
    CONSTANT      -0.50000000
    CONSTANT      -0.55000000
    CONSTANT      -0.60000000
    CONSTANT      -0.65000000
    CONSTANT      -0.70000000
    CONSTANT      -0.75000000
    CONSTANT      -0.80000000
    CONSTANT      -0.85000000
    CONSTANT      -0.90000000
    CONSTANT      -0.95000000
    CONSTANT      -1.00000000
    CONSTANT      -1.05000000
    CONSTANT      -1.10000000
    CONSTANT      -1.15000000
    CONSTANT      -1.20000000
    CONSTANT      -1.25000000
    CONSTANT      -1.30000000
    CONSTANT      -1.35000000
    CONSTANT      -1.40000000
    CONSTANT      -1.45000000
    CONSTANT      -1.50000000
    CONSTANT      -1.55000000
    CONSTANT      -1.60000000
    CONSTANT      -1.65000000
    CONSTANT      -1.70000000
    CONSTANT      -1.75000000
    CONSTANT      -1.80000000
    CONSTANT      -1.85000000
    CONSTANT      -1.90000000
    CONSTANT      -1.95000000
    CONSTANT      -2.00000000
END griddata

BEGIN vertices
  1       0.00000000       5.50000000
  2       0.00000000       6.00000000
  3       3.00000000       6.00000000
  4       3.00000000       5.50000000
  5       6.00000000       6.00000000
  6       6.00000000       5.50000000
  7       9.00000000       6.00000000
  8       9.00000000       5.50000000
  9      12.00000000       6.00000000
  10      12.00000000       5.50000000
  11      15.00000000       6.00000000
  12      15.00000000       5.50000000
  13      18.00000000       6.00000000
  14      18.00000000       5.50000000
  15      21.00000000       6.00000000
  16      21.00000000       5.50000000
  17      24.00000000       6.00000000
  18      24.00000000       5.50000000
  19      27.00000000       6.00000000
  20      27.00000000       5.50000000
  21      30.00000000       6.00000000
  22      30.00000000       5.50000000
  23      33.00000000       6.00000000
  24      33.00000000       5.50000000
  25      36.00000000       6.00000000
  26      36.00000000       5.50000000
  27      39.00000000       6.00000000
  28      39.00000000       5.50000000
  29      42.00000000       6.00000000
  30      42.00000000       5.50000000
  31      45.00000000       6.00000000
  32      45.00000000       5.50000000
  33      48.00000000       6.00000000
  34      48.00000000       5.50000000
  35      51.00000000       6.00000000
  36      51.00000000       5.50000000
  37      54.00000000       6.00000000
  38      54.00000000       5.50000000
  39      57.00000000       6.00000000
  40      57.00000000       5.50000000
  41      60.00000000       6.00000000
  42      60.00000000       5.50000000
  43      63.00000000       6.00000000
  44      63.00000000       5.50000000
  45      66.00000000       6.00000000
  46      66.00000000       5.50000000
  47      69.00000000       6.00000000
  48      69.00000000       5.50000000
  49      72.00000000       6.00000000
  50      72.00000000       5.50000000
  51      75.00000000       6.00000000
  52      75.00000000       5.50000000
  53      78.00000000       6.00000000
  54      78.00000000       5.50000000
  55      81.00000000       6.00000000
  56      81.00000000       5.50000000
  57      84.00000000       6.00000000
  58      84.00000000       5.50000000
  59      87.00000000       6.00000000
  60      87.00000000       5.50000000
  61      90.00000000       6.00000000
  62      90.00000000       5.50000000
  63       0.00000000       5.00000000
  64       3.00000000       5.00000000
  65       6.00000000       5.00000000
  66       9.00000000       5.00000000
  67      12.00000000       5.00000000
  68      15.00000000       5.00000000
  69      18.00000000       5.00000000
  70      21.00000000       5.00000000
  71      24.00000000       5.00000000
  72      27.00000000       5.00000000
  73      30.00000000       5.00000000
  74      33.00000000       5.00000000
  75      36.00000000       5.00000000
  76      39.00000000       5.00000000
  77      42.00000000       5.00000000
  78      45.00000000       5.00000000
  79      48.00000000       5.00000000
  80      51.00000000       5.00000000
  81      54.00000000       5.00000000
  82      57.00000000       5.00000000
  83      60.00000000       5.00000000
  84      63.00000000       5.00000000
  85      66.00000000       5.00000000
  86      69.00000000       5.00000000
  87      72.00000000       5.00000000
  88      75.00000000       5.00000000
  89      78.00000000       5.00000000
  90      81.00000000       5.00000000
  91      84.00000000       5.00000000
  92      87.00000000       5.00000000
  93      90.00000000       5.00000000
  94       0.00000000       4.50000000
  95       3.00000000       4.50000000
  96       6.00000000       4.50000000
  97       9.00000000       4.50000000
  98      12.00000000       4.50000000
  99      15.00000000       4.50000000
  100      18.00000000       4.50000000
  101      21.00000000       4.50000000
  102      24.00000000       4.50000000
  103      27.00000000       4.50000000
  104      30.00000000       4.50000000
  105      33.00000000       4.50000000
  106      36.00000000       4.50000000
  107      39.00000000       4.50000000
  108      42.00000000       4.50000000
  109      45.00000000       4.50000000
  110      48.00000000       4.50000000
  111      51.00000000       4.50000000
  112      54.00000000       4.50000000
  113      57.00000000       4.50000000
  114      60.00000000       4.50000000
  115      63.00000000       4.50000000
  116      66.00000000       4.50000000
  117      69.00000000       4.50000000
  118      72.00000000       4.50000000
  119      75.00000000       4.50000000
  120      78.00000000       4.50000000
  121      81.00000000       4.50000000
  122      84.00000000       4.50000000
  123      87.00000000       4.50000000
  124      90.00000000       4.50000000
  125       0.00000000       4.00000000
  126       3.00000000       4.00000000
  127       6.00000000       4.00000000
  128       9.00000000       4.00000000
  129      12.00000000       4.00000000
  130      15.00000000       4.00000000
  131      18.00000000       4.00000000
  132      21.00000000       4.00000000
  133      24.00000000       4.00000000
  134      27.00000000       4.00000000
  135      30.00000000       4.00000000
  136      33.00000000       4.00000000
  137      36.00000000       4.00000000
  138      39.00000000       4.00000000
  139      42.00000000       4.00000000
  140      45.00000000       4.00000000
  141      48.00000000       4.00000000
  142      51.00000000       4.00000000
  143      54.00000000       4.00000000
  144      57.00000000       4.00000000
  145      60.00000000       4.00000000
  146      63.00000000       4.00000000
  147      66.00000000       4.00000000
  148      69.00000000       4.00000000
  149      72.00000000       4.00000000
  150      75.00000000       4.00000000
  151      78.00000000       4.00000000
  152      81.00000000       4.00000000
  153      84.00000000       4.00000000
  154      87.00000000       4.00000000
  155      90.00000000       4.00000000
  156       0.00000000       3.50000000
  157       3.00000000       3.50000000
  158       6.00000000       3.50000000
  159       9.00000000       3.50000000
  160      12.00000000       3.50000000
  161      15.00000000       3.50000000
  162      18.00000000       3.50000000
  163      21.00000000       3.50000000
  164      24.00000000       3.50000000
  165      27.00000000       3.50000000
  166      30.00000000       3.50000000
  167      33.00000000       3.50000000
  168      36.00000000       3.50000000
  169      39.00000000       3.50000000
  170      42.00000000       3.50000000
  171      45.00000000       3.50000000
  172      48.00000000       3.50000000
  173      51.00000000       3.50000000
  174      54.00000000       3.50000000
  175      57.00000000       3.50000000
  176      60.00000000       3.50000000
  177      63.00000000       3.50000000
  178      66.00000000       3.50000000
  179      69.00000000       3.50000000
  180      72.00000000       3.50000000
  181      75.00000000       3.50000000
  182      78.00000000       3.50000000
  183      81.00000000       3.50000000
  184      84.00000000       3.50000000
  185      87.00000000       3.50000000
  186      90.00000000       3.50000000
  187       0.00000000       3.00000000
  188       3.00000000       3.00000000
  189       6.00000000       3.00000000
  190       9.00000000       3.00000000
  191      12.00000000       3.00000000
  192      15.00000000       3.00000000
  193      18.00000000       3.00000000
  194      21.00000000       3.00000000
  195      24.00000000       3.00000000
  196      27.00000000       3.00000000
  197      30.00000000       3.00000000
  198      33.00000000       3.00000000
  199      36.00000000       3.00000000
  200      39.00000000       3.00000000
  201      42.00000000       3.00000000
  202      45.00000000       3.00000000
  203      48.00000000       3.00000000
  204      51.00000000       3.00000000
  205      54.00000000       3.00000000
  206      57.00000000       3.00000000
  207      60.00000000       3.00000000
  208      63.00000000       3.00000000
  209      66.00000000       3.00000000
  210      69.00000000       3.00000000
  211      72.00000000       3.00000000
  212      75.00000000       3.00000000
  213      78.00000000       3.00000000
  214      81.00000000       3.00000000
  215      84.00000000       3.00000000
  216      87.00000000       3.00000000
  217      90.00000000       3.00000000
  218       0.00000000       2.50000000
  219       3.00000000       2.50000000
  220       6.00000000       2.50000000
  221       9.00000000       2.50000000
  222      12.00000000       2.50000000
  223      15.00000000       2.50000000
  224      18.00000000       2.50000000
  225      21.00000000       2.50000000
  226      24.00000000       2.50000000
  227      27.00000000       2.50000000
  228      30.00000000       2.50000000
  229      33.00000000       2.50000000
  230      36.00000000       2.50000000
  231      39.00000000       2.50000000
  232      42.00000000       2.50000000
  233      45.00000000       2.50000000
  234      48.00000000       2.50000000
  235      51.00000000       2.50000000
  236      54.00000000       2.50000000
  237      57.00000000       2.50000000
  238      60.00000000       2.50000000
  239      63.00000000       2.50000000
  240      66.00000000       2.50000000
  241      69.00000000       2.50000000
  242      72.00000000       2.50000000
  243      75.00000000       2.50000000
  244      78.00000000       2.50000000
  245      81.00000000       2.50000000
  246      84.00000000       2.50000000
  247      87.00000000       2.50000000
  248      90.00000000       2.50000000
  249       0.00000000       2.00000000
  250       3.00000000       2.00000000
  251       6.00000000       2.00000000
  252       9.00000000       2.00000000
  253      12.00000000       2.00000000
  254      15.00000000       2.00000000
  255      18.00000000       2.00000000
  256      21.00000000       2.00000000
  257      24.00000000       2.00000000
  258      27.00000000       2.00000000
  259      30.00000000       2.00000000
  260      33.00000000       2.00000000
  261      36.00000000       2.00000000
  262      39.00000000       2.00000000
  263      42.00000000       2.00000000
  264      45.00000000       2.00000000
  265      48.00000000       2.00000000
  266      51.00000000       2.00000000
  267      54.00000000       2.00000000
  268      57.00000000       2.00000000
  269      60.00000000       2.00000000
  270      63.00000000       2.00000000
  271      66.00000000       2.00000000
  272      69.00000000       2.00000000
  273      72.00000000       2.00000000
  274      75.00000000       2.00000000
  275      78.00000000       2.00000000
  276      81.00000000       2.00000000
  277      84.00000000       2.00000000
  278      87.00000000       2.00000000
  279      90.00000000       2.00000000
  280       0.00000000       1.50000000
  281       3.00000000       1.50000000
  282       6.00000000       1.50000000
  283       9.00000000       1.50000000
  284      12.00000000       1.50000000
  285      15.00000000       1.50000000
  286      18.00000000       1.50000000
  287      21.00000000       1.50000000
  288      24.00000000       1.50000000
  289      27.00000000       1.50000000
  290      30.00000000       1.50000000
  291      33.00000000       1.50000000
  292      36.00000000       1.50000000
  293      39.00000000       1.50000000
  294      42.00000000       1.50000000
  295      45.00000000       1.50000000
  296      48.00000000       1.50000000
  297      51.00000000       1.50000000
  298      54.00000000       1.50000000
  299      57.00000000       1.50000000
  300      60.00000000       1.50000000
  301      63.00000000       1.50000000
  302      66.00000000       1.50000000
  303      69.00000000       1.50000000
  304      72.00000000       1.50000000
  305      75.00000000       1.50000000
  306      78.00000000       1.50000000
  307      81.00000000       1.50000000
  308      84.00000000       1.50000000
  309      87.00000000       1.50000000
  310      90.00000000       1.50000000
  311       0.00000000       1.00000000
  312       3.00000000       1.00000000
  313       6.00000000       1.00000000
  314       9.00000000       1.00000000
  315      12.00000000       1.00000000
  316      15.00000000       1.00000000
  317      18.00000000       1.00000000
  318      21.00000000       1.00000000
  319      24.00000000       1.00000000
  320      27.00000000       1.00000000
  321      30.00000000       1.00000000
  322      33.00000000       1.00000000
  323      36.00000000       1.00000000
  324      39.00000000       1.00000000
  325      42.00000000       1.00000000
  326      45.00000000       1.00000000
  327      48.00000000       1.00000000
  328      51.00000000       1.00000000
  329      54.00000000       1.00000000
  330      57.00000000       1.00000000
  331      60.00000000       1.00000000
  332      63.00000000       1.00000000
  333      66.00000000       1.00000000
  334      69.00000000       1.00000000
  335      72.00000000       1.00000000
  336      75.00000000       1.00000000
  337      78.00000000       1.00000000
  338      81.00000000       1.00000000
  339      84.00000000       1.00000000
  340      87.00000000       1.00000000
  341      90.00000000       1.00000000
  342       0.00000000       0.50000000
  343       3.00000000       0.50000000
  344       6.00000000       0.50000000
  345       9.00000000       0.50000000
  346      12.00000000       0.50000000
  347      15.00000000       0.50000000
  348      18.00000000       0.50000000
  349      21.00000000       0.50000000
  350      24.00000000       0.50000000
  351      27.00000000       0.50000000
  352      30.00000000       0.50000000
  353      33.00000000       0.50000000
  354      36.00000000       0.50000000
  355      39.00000000       0.50000000
  356      42.00000000       0.50000000
  357      45.00000000       0.50000000
  358      48.00000000       0.50000000
  359      51.00000000       0.50000000
  360      54.00000000       0.50000000
  361      57.00000000       0.50000000
  362      60.00000000       0.50000000
  363      63.00000000       0.50000000
  364      66.00000000       0.50000000
  365      69.00000000       0.50000000
  366      72.00000000       0.50000000
  367      75.00000000       0.50000000
  368      78.00000000       0.50000000
  369      81.00000000       0.50000000
  370      84.00000000       0.50000000
  371      87.00000000       0.50000000
  372      90.00000000       0.50000000
  373       0.00000000       0.00000000
  374       3.00000000       0.00000000
  375       6.00000000       0.00000000
  376       9.00000000       0.00000000
  377      12.00000000       0.00000000
  378      15.00000000       0.00000000
  379      18.00000000       0.00000000
  380      21.00000000       0.00000000
  381      24.00000000       0.00000000
  382      27.00000000       0.00000000
  383      30.00000000       0.00000000
  384      33.00000000       0.00000000
  385      36.00000000       0.00000000
  386      39.00000000       0.00000000
  387      42.00000000       0.00000000
  388      45.00000000       0.00000000
  389      48.00000000       0.00000000
  390      51.00000000       0.00000000
  391      54.00000000       0.00000000
  392      57.00000000       0.00000000
  393      60.00000000       0.00000000
  394      63.00000000       0.00000000
  395      66.00000000       0.00000000
  396      69.00000000       0.00000000
  397      72.00000000       0.00000000
  398      75.00000000       0.00000000
  399      78.00000000       0.00000000
  400      81.00000000       0.00000000
  401      84.00000000       0.00000000
  402      87.00000000       0.00000000
  403      90.00000000       0.00000000
END vertices

BEGIN cell2d
  1       1.50000000       5.75000000  5  1  2  3  4  1
  2       5.00000000       5.66666667  4  4  5  6  4
  3       4.00000000       5.83333333  4  4  3  5  4
  4       8.00000000       5.66666667  4  6  7  8  6
  5       7.00000000       5.83333333  4  6  5  7  6
  6      11.00000000       5.66666667  4  8  9  10  8
  7      10.00000000       5.83333333  4  8  7  9  8
  8      14.00000000       5.66666667  4  10  11  12  10
  9      13.00000000       5.83333333  4  10  9  11  10
  10      17.00000000       5.66666667  4  12  13  14  12
  11      16.00000000       5.83333333  4  12  11  13  12
  12      20.00000000       5.66666667  4  14  15  16  14
  13      19.00000000       5.83333333  4  14  13  15  14
  14      23.00000000       5.66666667  4  16  17  18  16
  15      22.00000000       5.83333333  4  16  15  17  16
  16      26.00000000       5.66666667  4  18  19  20  18
  17      25.00000000       5.83333333  4  18  17  19  18
  18      29.00000000       5.66666667  4  20  21  22  20
  19      28.00000000       5.83333333  4  20  19  21  20
  20      32.00000000       5.66666667  4  22  23  24  22
  21      31.00000000       5.83333333  4  22  21  23  22
  22      35.00000000       5.66666667  4  24  25  26  24
  23      34.00000000       5.83333333  4  24  23  25  24
  24      38.00000000       5.66666667  4  26  27  28  26
  25      37.00000000       5.83333333  4  26  25  27  26
  26      41.00000000       5.66666667  4  28  29  30  28
  27      40.00000000       5.83333333  4  28  27  29  28
  28      44.00000000       5.66666667  4  30  31  32  30
  29      43.00000000       5.83333333  4  30  29  31  30
  30      47.00000000       5.66666667  4  32  33  34  32
  31      46.00000000       5.83333333  4  32  31  33  32
  32      50.00000000       5.66666667  4  34  35  36  34
  33      49.00000000       5.83333333  4  34  33  35  34
  34      53.00000000       5.66666667  4  36  37  38  36
  35      52.00000000       5.83333333  4  36  35  37  36
  36      56.00000000       5.66666667  4  38  39  40  38
  37      55.00000000       5.83333333  4  38  37  39  38
  38      59.00000000       5.66666667  4  40  41  42  40
  39      58.00000000       5.83333333  4  40  39  41  40
  40      62.00000000       5.66666667  4  42  43  44  42
  41      61.00000000       5.83333333  4  42  41  43  42
  42      65.00000000       5.66666667  4  44  45  46  44
  43      64.00000000       5.83333333  4  44  43  45  44
  44      68.00000000       5.66666667  4  46  47  48  46
  45      67.00000000       5.83333333  4  46  45  47  46
  46      71.00000000       5.66666667  4  48  49  50  48
  47      70.00000000       5.83333333  4  48  47  49  48
  48      74.00000000       5.66666667  4  50  51  52  50
  49      73.00000000       5.83333333  4  50  49  51  50
  50      77.00000000       5.66666667  4  52  53  54  52
  51      76.00000000       5.83333333  4  52  51  53  52
  52      80.00000000       5.66666667  4  54  55  56  54
  53      79.00000000       5.83333333  4  54  53  55  54
  54      83.00000000       5.66666667  4  56  57  58  56
  55      82.00000000       5.83333333  4  56  55  57  56
  56      86.00000000       5.66666667  4  58  59  60  58
  57      85.00000000       5.83333333  4  58  57  59  58
  58      88.50000000       5.75000000  5  60  59  61  62  60
  59       1.50000000       5.25000000  5  63  1  4  64  63
  60       5.00000000       5.16666667  4  64  6  65  64
  61       4.00000000       5.33333333  4  64  4  6  64
  62       8.00000000       5.16666667  4  65  8  66  65
  63       7.00000000       5.33333333  4  65  6  8  65
  64      11.00000000       5.16666667  4  66  10  67  66
  65      10.00000000       5.33333333  4  66  8  10  66
  66      14.00000000       5.16666667  4  67  12  68  67
  67      13.00000000       5.33333333  4  67  10  12  67
  68      17.00000000       5.16666667  4  68  14  69  68
  69      16.00000000       5.33333333  4  68  12  14  68
  70      20.00000000       5.16666667  4  69  16  70  69
  71      19.00000000       5.33333333  4  69  14  16  69
  72      23.00000000       5.16666667  4  70  18  71  70
  73      22.00000000       5.33333333  4  70  16  18  70
  74      26.00000000       5.16666667  4  71  20  72  71
  75      25.00000000       5.33333333  4  71  18  20  71
  76      29.00000000       5.16666667  4  72  22  73  72
  77      28.00000000       5.33333333  4  72  20  22  72
  78      32.00000000       5.16666667  4  73  24  74  73
  79      31.00000000       5.33333333  4  73  22  24  73
  80      35.00000000       5.16666667  4  74  26  75  74
  81      34.00000000       5.33333333  4  74  24  26  74
  82      38.00000000       5.16666667  4  75  28  76  75
  83      37.00000000       5.33333333  4  75  26  28  75
  84      41.00000000       5.16666667  4  76  30  77  76
  85      40.00000000       5.33333333  4  76  28  30  76
  86      44.00000000       5.16666667  4  77  32  78  77
  87      43.00000000       5.33333333  4  77  30  32  77
  88      47.00000000       5.16666667  4  78  34  79  78
  89      46.00000000       5.33333333  4  78  32  34  78
  90      50.00000000       5.16666667  4  79  36  80  79
  91      49.00000000       5.33333333  4  79  34  36  79
  92      53.00000000       5.16666667  4  80  38  81  80
  93      52.00000000       5.33333333  4  80  36  38  80
  94      56.00000000       5.16666667  4  81  40  82  81
  95      55.00000000       5.33333333  4  81  38  40  81
  96      59.00000000       5.16666667  4  82  42  83  82
  97      58.00000000       5.33333333  4  82  40  42  82
  98      62.00000000       5.16666667  4  83  44  84  83
  99      61.00000000       5.33333333  4  83  42  44  83
  100      65.00000000       5.16666667  4  84  46  85  84
  101      64.00000000       5.33333333  4  84  44  46  84
  102      68.00000000       5.16666667  4  85  48  86  85
  103      67.00000000       5.33333333  4  85  46  48  85
  104      71.00000000       5.16666667  4  86  50  87  86
  105      70.00000000       5.33333333  4  86  48  50  86
  106      74.00000000       5.16666667  4  87  52  88  87
  107      73.00000000       5.33333333  4  87  50  52  87
  108      77.00000000       5.16666667  4  88  54  89  88
  109      76.00000000       5.33333333  4  88  52  54  88
  110      80.00000000       5.16666667  4  89  56  90  89
  111      79.00000000       5.33333333  4  89  54  56  89
  112      83.00000000       5.16666667  4  90  58  91  90
  113      82.00000000       5.33333333  4  90  56  58  90
  114      86.00000000       5.16666667  4  91  60  92  91
  115      85.00000000       5.33333333  4  91  58  60  91
  116      88.50000000       5.25000000  5  92  60  62  93  92
  117       1.50000000       4.75000000  5  94  63  64  95  94
  118       5.00000000       4.66666667  4  95  65  96  95
  119       4.00000000       4.83333333  4  95  64  65  95
  120       8.00000000       4.66666667  4  96  66  97  96
  121       7.00000000       4.83333333  4  96  65  66  96
  122      11.00000000       4.66666667  4  97  67  98  97
  123      10.00000000       4.83333333  4  97  66  67  97
  124      14.00000000       4.66666667  4  98  68  99  98
  125      13.00000000       4.83333333  4  98  67  68  98
  126      17.00000000       4.66666667  4  99  69  100  99
  127      16.00000000       4.83333333  4  99  68  69  99
  128      20.00000000       4.66666667  4  100  70  101  100
  129      19.00000000       4.83333333  4  100  69  70  100
  130      23.00000000       4.66666667  4  101  71  102  101
  131      22.00000000       4.83333333  4  101  70  71  101
  132      26.00000000       4.66666667  4  102  72  103  102
  133      25.00000000       4.83333333  4  102  71  72  102
  134      29.00000000       4.66666667  4  103  73  104  103
  135      28.00000000       4.83333333  4  103  72  73  103
  136      32.00000000       4.66666667  4  104  74  105  104
  137      31.00000000       4.83333333  4  104  73  74  104
  138      35.00000000       4.66666667  4  105  75  106  105
  139      34.00000000       4.83333333  4  105  74  75  105
  140      38.00000000       4.66666667  4  106  76  107  106
  141      37.00000000       4.83333333  4  106  75  76  106
  142      41.00000000       4.66666667  4  107  77  108  107
  143      40.00000000       4.83333333  4  107  76  77  107
  144      44.00000000       4.66666667  4  108  78  109  108
  145      43.00000000       4.83333333  4  108  77  78  108
  146      47.00000000       4.66666667  4  109  79  110  109
  147      46.00000000       4.83333333  4  109  78  79  109
  148      50.00000000       4.66666667  4  110  80  111  110
  149      49.00000000       4.83333333  4  110  79  80  110
  150      53.00000000       4.66666667  4  111  81  112  111
  151      52.00000000       4.83333333  4  111  80  81  111
  152      56.00000000       4.66666667  4  112  82  113  112
  153      55.00000000       4.83333333  4  112  81  82  112
  154      59.00000000       4.66666667  4  113  83  114  113
  155      58.00000000       4.83333333  4  113  82  83  113
  156      62.00000000       4.66666667  4  114  84  115  114
  157      61.00000000       4.83333333  4  114  83  84  114
  158      65.00000000       4.66666667  4  115  85  116  115
  159      64.00000000       4.83333333  4  115  84  85  115
  160      68.00000000       4.66666667  4  116  86  117  116
  161      67.00000000       4.83333333  4  116  85  86  116
  162      71.00000000       4.66666667  4  117  87  118  117
  163      70.00000000       4.83333333  4  117  86  87  117
  164      74.00000000       4.66666667  4  118  88  119  118
  165      73.00000000       4.83333333  4  118  87  88  118
  166      77.00000000       4.66666667  4  119  89  120  119
  167      76.00000000       4.83333333  4  119  88  89  119
  168      80.00000000       4.66666667  4  120  90  121  120
  169      79.00000000       4.83333333  4  120  89  90  120
  170      83.00000000       4.66666667  4  121  91  122  121
  171      82.00000000       4.83333333  4  121  90  91  121
  172      86.00000000       4.66666667  4  122  92  123  122
  173      85.00000000       4.83333333  4  122  91  92  122
  174      88.50000000       4.75000000  5  123  92  93  124  123
  175       1.50000000       4.25000000  5  125  94  95  126  125
  176       5.00000000       4.16666667  4  126  96  127  126
  177       4.00000000       4.33333333  4  126  95  96  126
  178       8.00000000       4.16666667  4  127  97  128  127
  179       7.00000000       4.33333333  4  127  96  97  127
  180      11.00000000       4.16666667  4  128  98  129  128
  181      10.00000000       4.33333333  4  128  97  98  128
  182      14.00000000       4.16666667  4  129  99  130  129
  183      13.00000000       4.33333333  4  129  98  99  129
  184      17.00000000       4.16666667  4  130  100  131  130
  185      16.00000000       4.33333333  4  130  99  100  130
  186      20.00000000       4.16666667  4  131  101  132  131
  187      19.00000000       4.33333333  4  131  100  101  131
  188      23.00000000       4.16666667  4  132  102  133  132
  189      22.00000000       4.33333333  4  132  101  102  132
  190      26.00000000       4.16666667  4  133  103  134  133
  191      25.00000000       4.33333333  4  133  102  103  133
  192      29.00000000       4.16666667  4  134  104  135  134
  193      28.00000000       4.33333333  4  134  103  104  134
  194      32.00000000       4.16666667  4  135  105  136  135
  195      31.00000000       4.33333333  4  135  104  105  135
  196      35.00000000       4.16666667  4  136  106  137  136
  197      34.00000000       4.33333333  4  136  105  106  136
  198      38.00000000       4.16666667  4  137  107  138  137
  199      37.00000000       4.33333333  4  137  106  107  137
  200      41.00000000       4.16666667  4  138  108  139  138
  201      40.00000000       4.33333333  4  138  107  108  138
  202      44.00000000       4.16666667  4  139  109  140  139
  203      43.00000000       4.33333333  4  139  108  109  139
  204      47.00000000       4.16666667  4  140  110  141  140
  205      46.00000000       4.33333333  4  140  109  110  140
  206      50.00000000       4.16666667  4  141  111  142  141
  207      49.00000000       4.33333333  4  141  110  111  141
  208      53.00000000       4.16666667  4  142  112  143  142
  209      52.00000000       4.33333333  4  142  111  112  142