# File generated by Flopy version 3.3.5 on 03/04/2022 at 11:18:16.
BEGIN options
END options

BEGIN dimensions
  MAXBOUND  1
END dimensions

BEGIN period  1
  1 652       2.50000000
END period  1

