# File generated by Flopy version 3.3.5 on 03/04/2022 at 11:18:16.
BEGIN options
  PRINT_OPTION  summary
END options

BEGIN nonlinear
  OUTER_DVCLOSE       0.01000000
  UNDER_RELAXATION  simple
  UNDER_RELAXATION_GAMMA       0.90000000
END nonlinear

BEGIN linear
  INNER_DVCLOSE       0.01000000
  LINEAR_ACCELERATION  bicgstab
  RELAXATION_FACTOR       0.99000000
END linear

