# File generated by Flopy version 3.3.5 on 03/04/2022 at 11:18:16.
BEGIN options
  DIGITS  10
  PRINT_INPUT
END options

BEGIN continuous  FILEOUT  trans.obs.csv
  SOURCELOC  CONCENTRATION  1 12 8
END continuous  FILEOUT  trans.obs.csv

