# File generated by Flopy version 3.3.5 on 03/04/2022 at 11:18:16.
BEGIN options
END options

BEGIN griddata
  alh
    CONSTANT       0.60000000
  ath1
    CONSTANT       0.03000000
  ath2
    CONSTANT       0.00600000
END griddata

