# File generated by Flopy version 3.3.5 on 03/04/2022 at 11:17:59.
BEGIN options
  auxiliary  CONCENTRATION
END options

BEGIN dimensions
  MAXBOUND  2158
END dimensions

BEGIN period  1
  1 1 1      14.00000000     285.15000000
  1 1 247      13.96400000     285.15000000
  1 2 1      14.00000000     285.15000000
  1 2 247      13.96400000     285.15000000
  1 3 1      14.00000000     285.15000000
  1 3 247      13.96400000     285.15000000
  1 4 1      14.00000000     285.15000000
  1 4 247      13.96400000     285.15000000
  1 5 1      14.00000000     285.15000000
  1 5 247      13.96400000     285.15000000
  1 6 1      14.00000000     285.15000000
  1 6 247      13.96400000     285.15000000
  1 7 1      14.00000000     285.15000000
  1 7 247      13.96400000     285.15000000
  1 8 1      14.00000000     285.15000000
  1 8 247      13.96400000     285.15000000
  1 9 1      14.00000000     285.15000000
  1 9 247      13.96400000     285.15000000
  1 10 1      14.00000000     285.15000000
  1 10 247      13.96400000     285.15000000
  1 11 1      14.00000000     285.15000000
  1 11 247      13.96400000     285.15000000
  1 12 1      14.00000000     285.15000000
  1 12 247      13.96400000     285.15000000
  1 13 1      14.00000000     285.15000000
  1 13 247      13.96400000     285.15000000
  1 14 1      14.00000000     285.15000000
  1 14 247      13.96400000     285.15000000
  1 15 1      14.00000000     285.15000000
  1 15 247      13.96400000     285.15000000
  1 16 1      14.00000000     285.15000000
  1 16 247      13.96400000     285.15000000
  1 17 1      14.00000000     285.15000000
  1 17 247      13.96400000     285.15000000
  1 18 1      14.00000000     285.15000000
  1 18 247      13.96400000     285.15000000
  1 19 1      14.00000000     285.15000000
  1 19 247      13.96400000     285.15000000
  1 20 1      14.00000000     285.15000000
  1 20 247      13.96400000     285.15000000
  1 21 1      14.00000000     285.15000000
  1 21 247      13.96400000     285.15000000
  1 22 1      14.00000000     285.15000000
  1 22 247      13.96400000     285.15000000
  1 23 1      14.00000000     285.15000000
  1 23 247      13.96400000     285.15000000
  1 24 1      14.00000000     285.15000000
  1 24 247      13.96400000     285.15000000
  1 25 1      14.00000000     285.15000000
  1 25 247      13.96400000     285.15000000
  1 26 1      14.00000000     285.15000000
  1 26 247      13.96400000     285.15000000
  1 27 1      14.00000000     285.15000000
  1 27 247      13.96400000     285.15000000
  1 28 1      14.00000000     285.15000000
  1 28 247      13.96400000     285.15000000
  1 29 1      14.00000000     285.15000000
  1 29 247      13.96400000     285.15000000
  1 30 1      14.00000000     285.15000000
  1 30 247      13.96400000     285.15000000
  1 31 1      14.00000000     285.15000000
  1 31 247      13.96400000     285.15000000
  1 32 1      14.00000000     285.15000000
  1 32 247      13.96400000     285.15000000
  1 33 1      14.00000000     285.15000000
  1 33 247      13.96400000     285.15000000
  1 34 1      14.00000000     285.15000000
  1 34 247      13.96400000     285.15000000
  1 35 1      14.00000000     285.15000000
  1 35 247      13.96400000     285.15000000
  1 36 1      14.00000000     285.15000000
  1 36 247      13.96400000     285.15000000
  1 37 1      14.00000000     285.15000000
  1 37 247      13.96400000     285.15000000
  1 38 1      14.00000000     285.15000000
  1 38 247      13.96400000     285.15000000
  1 39 1      14.00000000     285.15000000
  1 39 247      13.96400000     285.15000000
  1 40 1      14.00000000     285.15000000
  1 40 247      13.96400000     285.15000000
  1 41 1      14.00000000     285.15000000
  1 41 247      13.96400000     285.15000000
  1 42 1      14.00000000     285.15000000
  1 42 247      13.96400000     285.15000000
  1 43 1      14.00000000     285.15000000
  1 43 247      13.96400000     285.15000000
  1 44 1      14.00000000     285.15000000
  1 44 247      13.96400000     285.15000000
  1 45 1      14.00000000     285.15000000
  1 45 247      13.96400000     285.15000000
  1 46 1      14.00000000     285.15000000
  1 46 247      13.96400000     285.15000000
  1 47 1      14.00000000     285.15000000
  1 47 247      13.96400000     285.15000000
  1 48 1      14.00000000     285.15000000
  1 48 247      13.96400000     285.15000000
  1 49 1      14.00000000     285.15000000
  1 49 247      13.96400000     285.15000000
  1 50 1      14.00000000     285.15000000
  1 50 247      13.96400000     285.15000000
  1 51 1      14.00000000     285.15000000
  1 51 247      13.96400000     285.15000000
  1 52 1      14.00000000     285.15000000
  1 52 247      13.96400000     285.15000000
  1 53 1      14.00000000     285.15000000
  1 53 247      13.96400000     285.15000000
  1 54 1      14.00000000     285.15000000
  1 54 247      13.96400000     285.15000000
  1 55 1      14.00000000     285.15000000
  1 55 247      13.96400000     285.15000000
  1 56 1      14.00000000     285.15000000
  1 56 247      13.96400000     285.15000000
  1 57 1      14.00000000     285.15000000
  1 57 247      13.96400000     285.15000000
  1 58 1      14.00000000     285.15000000
  1 58 247      13.96400000     285.15000000
  1 59 1      14.00000000     285.15000000
  1 59 247      13.96400000     285.15000000
  1 60 1      14.00000000     285.15000000
  1 60 247      13.96400000     285.15000000
  1 61 1      14.00000000     285.15000000
  1 61 247      13.96400000     285.15000000
  1 62 1      14.00000000     285.15000000
  1 62 247      13.96400000     285.15000000
  1 63 1      14.00000000     285.15000000
  1 63 247      13.96400000     285.15000000
  1 64 1      14.00000000     285.15000000
  1 64 247      13.96400000     285.15000000
  1 65 1      14.00000000     285.15000000
  1 65 247      13.96400000     285.15000000
  1 66 1      14.00000000     285.15000000
  1 66 247      13.96400000     285.15000000
  1 67 1      14.00000000     285.15000000
  1 67 247      13.96400000     285.15000000
  1 68 1      14.00000000     285.15000000
  1 68 247      13.96400000     285.15000000
  1 69 1      14.00000000     285.15000000
  1 69 247      13.96400000     285.15000000
  1 70 1      14.00000000     285.15000000
  1 70 247      13.96400000     285.15000000
  1 71 1      14.00000000     285.15000000
  1 71 247      13.96400000     285.15000000
  1 72 1      14.00000000     285.15000000
  1 72 247      13.96400000     285.15000000
  1 73 1      14.00000000     285.15000000
  1 73 247      13.96400000     285.15000000
  1 74 1      14.00000000     285.15000000
  1 74 247      13.96400000     285.15000000
  1 75 1      14.00000000     285.15000000
  1 75 247      13.96400000     285.15000000
  1 76 1      14.00000000     285.15000000
  1 76 247      13.96400000     285.15000000
  1 77 1      14.00000000     285.15000000
  1 77 247      13.96400000     285.15000000
  1 78 1      14.00000000     285.15000000
  1 78 247      13.96400000     285.15000000
  1 79 1      14.00000000     285.15000000
  1 79 247      13.96400000     285.15000000
  1 80 1      14.00000000     285.15000000
  1 80 247      13.96400000     285.15000000
  1 81 1      14.00000000     285.15000000
  1 81 247      13.96400000     285.15000000
  1 82 1      14.00000000     285.15000000
  1 82 247      13.96400000     285.15000000
  1 83 1      14.00000000     285.15000000
  1 83 247      13.96400000     285.15000000
  2 1 1      14.00000000     285.15000000
  2 1 247      13.96400000     285.15000000
  2 2 1      14.00000000     285.15000000
  2 2 247      13.96400000     285.15000000
  2 3 1      14.00000000     285.15000000
  2 3 247      13.96400000     285.15000000
  2 4 1      14.00000000     285.15000000
  2 4 247      13.96400000     285.15000000
  2 5 1      14.00000000     285.15000000
  2 5 247      13.96400000     285.15000000
  2 6 1      14.00000000     285.15000000
  2 6 247      13.96400000     285.15000000
  2 7 1      14.00000000     285.15000000
  2 7 247      13.96400000     285.15000000
  2 8 1      14.00000000     285.15000000
  2 8 247      13.96400000     285.15000000
  2 9 1      14.00000000     285.15000000
  2 9 247      13.96400000     285.15000000
  2 10 1      14.00000000     285.15000000
  2 10 247      13.96400000     285.15000000
  2 11 1      14.00000000     285.15000000
  2 11 247      13.96400000     285.15000000
  2 12 1      14.00000000     285.15000000
  2 12 247      13.96400000     285.15000000
  2 13 1      14.00000000     285.15000000
  2 13 247      13.96400000     285.15000000
  2 14 1      14.00000000     285.15000000
  2 14 247      13.96400000     285.15000000
  2 15 1      14.00000000     285.15000000
  2 15 247      13.96400000     285.15000000
  2 16 1      14.00000000     285.15000000
  2 16 247      13.96400000     285.15000000
  2 17 1      14.00000000     285.15000000
  2 17 247      13.96400000     285.15000000
  2 18 1      14.00000000     285.15000000
  2 18 247      13.96400000     285.15000000
  2 19 1      14.00000000     285.15000000
  2 19 247      13.96400000     285.15000000
  2 20 1      14.00000000     285.15000000
  2 20 247      13.96400000     285.15000000
  2 21 1      14.00000000     285.15000000
  2 21 247      13.96400000     285.15000000
  2 22 1      14.00000000     285.15000000
  2 22 247      13.96400000     285.15000000
  2 23 1      14.00000000     285.15000000
  2 23 247      13.96400000     285.15000000
  2 24 1      14.00000000     285.15000000
  2 24 247      13.96400000     285.15000000
  2 25 1      14.00000000     285.15000000
  2 25 247      13.96400000     285.15000000
  2 26 1      14.00000000     285.15000000
  2 26 247      13.96400000     285.15000000
  2 27 1      14.00000000     285.15000000
  2 27 247      13.96400000     285.15000000
  2 28 1      14.00000000     285.15000000
  2 28 247      13.96400000     285.15000000
  2 29 1      14.00000000     285.15000000
  2 29 247      13.96400000     285.15000000
  2 30 1      14.00000000     285.15000000
  2 30 247      13.96400000     285.15000000
  2 31 1      14.00000000     285.15000000
  2 31 247      13.96400000     285.15000000
  2 32 1      14.00000000     285.15000000
  2 32 247      13.96400000     285.15000000
  2 33 1      14.00000000     285.15000000
  2 33 247      13.96400000     285.15000000
  2 34 1      14.00000000     285.15000000
  2 34 247      13.96400000     285.15000000
  2 35 1      14.00000000     285.15000000
  2 35 247      13.96400000     285.15000000
  2 36 1      14.00000000     285.15000000
  2 36 247      13.96400000     285.15000000
  2 37 1      14.00000000     285.15000000
  2 37 247      13.96400000     285.15000000
  2 38 1      14.00000000     285.15000000
  2 38 247      13.96400000     285.15000000
  2 39 1      14.00000000     285.15000000
  2 39 247      13.96400000     285.15000000
  2 40 1      14.00000000     285.15000000
  2 40 247      13.96400000     285.15000000
  2 41 1      14.00000000     285.15000000
  2 41 247      13.96400000     285.15000000
  2 42 1      14.00000000     285.15000000
  2 42 247      13.96400000     285.15000000
  2 43 1      14.00000000     285.15000000
  2 43 247      13.96400000     285.15000000
  2 44 1      14.00000000     285.15000000
  2 44 247      13.96400000     285.15000000
  2 45 1      14.00000000     285.15000000
  2 45 247      13.96400000     285.15000000
  2 46 1      14.00000000     285.15000000
  2 46 247      13.96400000     285.15000000
  2 47 1      14.00000000     285.15000000
  2 47 247      13.96400000     285.15000000
  2 48 1      14.00000000     285.15000000
  2 48 247      13.96400000     285.15000000
  2 49 1      14.00000000     285.15000000
  2 49 247      13.96400000     285.15000000
  2 50 1      14.00000000     285.15000000
  2 50 247      13.96400000     285.15000000
  2 51 1      14.00000000     285.15000000
  2 51 247      13.96400000     285.15000000
  2 52 1      14.00000000     285.15000000
  2 52 247      13.96400000     285.15000000
  2 53 1      14.00000000     285.15000000
  2 53 247      13.96400000     285.15000000
  2 54 1      14.00000000     285.15000000
  2 54 247      13.96400000     285.15000000
  2 55 1      14.00000000     285.15000000
  2 55 247      13.96400000     285.15000000
  2 56 1      14.00000000     285.15000000
  2 56 247      13.96400000     285.15000000
  2 57 1      14.00000000     285.15000000
  2 57 247      13.96400000     285.15000000
  2 58 1      14.00000000     285.15000000
  2 58 247      13.96400000     285.15000000
  2 59 1      14.00000000     285.15000000
  2 59 247      13.96400000     285.15000000
  2 60 1      14.00000000     285.15000000
  2 60 247      13.96400000     285.15000000
  2 61 1      14.00000000     285.15000000
  2 61 247      13.96400000     285.15000000
  2 62 1      14.00000000     285.15000000
  2 62 247      13.96400000     285.15000000
  2 63 1      14.00000000     285.15000000
  2 63 247      13.96400000     285.15000000
  2 64 1      14.00000000     285.15000000
  2 64 247      13.96400000     285.15000000
  2 65 1      14.00000000     285.15000000
  2 65 247      13.96400000     285.15000000
  2 66 1      14.00000000     285.15000000
  2 66 247      13.96400000     285.15000000
  2 67 1      14.00000000     285.15000000
  2 67 247      13.96400000     285.15000000
  2 68 1      14.00000000     285.15000000
  2 68 247      13.96400000     285.15000000
  2 69 1      14.00000000     285.15000000
  2 69 247      13.96400000     285.15000000
  2 70 1      14.00000000     285.15000000
  2 70 247      13.96400000     285.15000000
  2 71 1      14.00000000     285.15000000
  2 71 247      13.96400000     285.15000000
  2 72 1      14.00000000     285.15000000
  2 72 247      13.96400000     285.15000000
  2 73 1      14.00000000     285.15000000
  2 73 247      13.96400000     285.15000000
  2 74 1      14.00000000     285.15000000
  2 74 247      13.96400000     285.15000000
  2 75 1      14.00000000     285.15000000
  2 75 247      13.96400000     285.15000000
  2 76 1      14.00000000     285.15000000
  2 76 247      13.96400000     285.15000000
  2 77 1      14.00000000     285.15000000
  2 77 247      13.96400000     285.15000000
  2 78 1      14.00000000     285.15000000
  2 78 247      13.96400000     285.15000000
  2 79 1      14.00000000     285.15000000
  2 79 247      13.96400000     285.15000000
  2 80 1      14.00000000     285.15000000
  2 80 247      13.96400000     285.15000000
  2 81 1      14.00000000     285.15000000
  2 81 247      13.96400000     285.15000000
  2 82 1      14.00000000     285.15000000
  2 82 247      13.96400000     285.15000000
  2 83 1      14.00000000     285.15000000
  2 83 247      13.96400000     285.15000000
  3 1 1      14.00000000     285.15000000
  3 1 247      13.96400000     285.15000000
  3 2 1      14.00000000     285.15000000
  3 2 247      13.96400000     285.15000000
  3 3 1      14.00000000     285.15000000
  3 3 247      13.96400000     285.15000000
  3 4 1      14.00000000     285.15000000
  3 4 247      13.96400000     285.15000000
  3 5 1      14.00000000     285.15000000
  3 5 247      13.96400000     285.15000000
  3 6 1      14.00000000     285.15000000
  3 6 247      13.96400000     285.15000000
  3 7 1      14.00000000     285.15000000
  3 7 247      13.96400000     285.15000000
  3 8 1      14.00000000     285.15000000
  3 8 247      13.96400000     285.15000000
  3 9 1      14.00000000     285.15000000
  3 9 247      13.96400000     285.15000000
  3 10 1      14.00000000     285.15000000
  3 10 247      13.96400000     285.15000000
  3 11 1      14.00000000     285.15000000
  3 11 247      13.96400000     285.15000000
  3 12 1      14.00000000     285.15000000
  3 12 247      13.96400000     285.15000000
  3 13 1      14.00000000     285.15000000
  3 13 247      13.96400000     285.15000000
  3 14 1      14.00000000     285.15000000
  3 14 247      13.96400000     285.15000000
  3 15 1      14.00000000     285.15000000
  3 15 247      13.96400000     285.15000000
  3 16 1      14.00000000     285.15000000
  3 16 247      13.96400000     285.15000000
  3 17 1      14.00000000     285.15000000
  3 17 247      13.96400000     285.15000000
  3 18 1      14.00000000     285.15000000
  3 18 247      13.96400000     285.15000000
  3 19 1      14.00000000     285.15000000
  3 19 247      13.96400000     285.15000000
  3 20 1      14.00000000     285.15000000
  3 20 247      13.96400000     285.15000000
  3 21 1      14.00000000     285.15000000
  3 21 247      13.96400000     285.15000000
  3 22 1      14.00000000     285.15000000
  3 22 247      13.96400000     285.15000000
  3 23 1      14.00000000     285.15000000
  3 23 247      13.96400000     285.15000000
  3 24 1      14.00000000     285.15000000
  3 24 247      13.96400000     285.15000000
  3 25 1      14.00000000     285.15000000
  3 25 247      13.96400000     285.15000000
  3 26 1      14.00000000     285.15000000
  3 26 247      13.96400000     285.15000000
  3 27 1      14.00000000     285.15000000
  3 27 247      13.96400000     285.15000000
  3 28 1      14.00000000     285.15000000
  3 28 247      13.96400000     285.15000000
  3 29 1      14.00000000     285.15000000
  3 29 247      13.96400000     285.15000000
  3 30 1      14.00000000     285.15000000
  3 30 247      13.96400000     285.15000000
  3 31 1      14.00000000     285.15000000
  3 31 247      13.96400000     285.15000000
  3 32 1      14.00000000     285.15000000
  3 32 247      13.96400000     285.15000000
  3 33 1      14.00000000     285.15000000
  3 33 247      13.96400000     285.15000000
  3 34 1      14.00000000     285.15000000
  3 34 247      13.96400000     285.15000000
  3 35 1      14.00000000     285.15000000
  3 35 247      13.96400000     285.15000000
  3 36 1      14.00000000     285.15000000
  3 36 247      13.96400000     285.15000000
  3 37 1      14.00000000     285.15000000
  3 37 247      13.96400000     285.15000000
  3 38 1      14.00000000     285.15000000
  3 38 247      13.96400000     285.15000000
  3 39 1      14.00000000     285.15000000
  3 39 247      13.96400000     285.15000000
  3 40 1      14.00000000     285.15000000
  3 40 247      13.96400000     285.15000000
  3 41 1      14.00000000     285.15000000
  3 41 247      13.96400000     285.15000000
  3 42 1      14.00000000     285.15000000
  3 42 247      13.96400000     285.15000000
  3 43 1      14.00000000     285.15000000
  3 43 247      13.96400000     285.15000000
  3 44 1      14.00000000     285.15000000
  3 44 247      13.96400000     285.15000000
  3 45 1      14.00000000     285.15000000
  3 45 247      13.96400000     285.15000000
  3 46 1      14.00000000     285.15000000
  3 46 247      13.96400000     285.15000000
  3 47 1      14.00000000     285.15000000
  3 47 247      13.96400000     285.15000000
  3 48 1      14.00000000     285.15000000
  3 48 247      13.96400000     285.15000000
  3 49 1      14.00000000     285.15000000
  3 49 247      13.96400000     285.15000000
  3 50 1      14.00000000     285.15000000
  3 50 247      13.96400000     285.15000000
  3 51 1      14.00000000     285.15000000
  3 51 247      13.96400000     285.15000000
  3 52 1      14.00000000     285.15000000
  3 52 247      13.96400000     285.15000000
  3 53 1      14.00000000     285.15000000
  3 53 247      13.96400000     285.15000000
  3 54 1      14.00000000     285.15000000
  3 54 247      13.96400000     285.15000000
  3 55 1      14.00000000     285.15000000
  3 55 247      13.96400000     285.15000000
  3 56 1      14.00000000     285.15000000
  3 56 247      13.96400000     285.15000000
  3 57 1      14.00000000     285.15000000
  3 57 247      13.96400000     285.15000000
  3 58 1      14.00000000     285.15000000
  3 58 247      13.96400000     285.15000000
  3 59 1      14.00000000     285.15000000
  3 59 247      13.96400000     285.15000000
  3 60 1      14.00000000     285.15000000
  3 60 247      13.96400000     285.15000000
  3 61 1      14.00000000     285.15000000
  3 61 247      13.96400000     285.15000000
  3 62 1      14.00000000     285.15000000
  3 62 247      13.96400000     285.15000000
  3 63 1      14.00000000     285.15000000
  3 63 247      13.96400000     285.15000000
  3 64 1      14.00000000     285.15000000
  3 64 247      13.96400000     285.15000000
  3 65 1      14.00000000     285.15000000
  3 65 247      13.96400000     285.15000000
  3 66 1      14.00000000     285.15000000
  3 66 247      13.96400000     285.15000000
  3 67 1      14.00000000     285.15000000
  3 67 247      13.96400000     285.15000000
  3 68 1      14.00000000     285.15000000
  3 68 247      13.96400000     285.15000000
  3 69 1      14.00000000     285.15000000
  3 69 247      13.96400000     285.15000000
  3 70 1      14.00000000     285.15000000
  3 70 247      13.96400000     285.15000000
  3 71 1      14.00000000     285.15000000
  3 71 247      13.96400000     285.15000000
  3 72 1      14.00000000     285.15000000
  3 72 247      13.96400000     285.15000000
  3 73 1      14.00000000     285.15000000
  3 73 247      13.96400000     285.15000000
  3 74 1      14.00000000     285.15000000
  3 74 247      13.96400000     285.15000000
  3 75 1      14.00000000     285.15000000
  3 75 247      13.96400000     285.15000000
  3 76 1      14.00000000     285.15000000
  3 76 247      13.96400000     285.15000000
  3 77 1      14.00000000     285.15000000
  3 77 247      13.96400000     285.15000000
  3 78 1      14.00000000     285.15000000
  3 78 247      13.96400000     285.15000000
  3 79 1      14.00000000     285.15000000
  3 79 247      13.96400000     285.15000000
  3 80 1      14.00000000     285.15000000
  3 80 247      13.96400000     285.15000000
  3 81 1      14.00000000     285.15000000
  3 81 247      13.96400000     285.15000000
  3 82 1      14.00000000     285.15000000
  3 82 247      13.96400000     285.15000000
  3 83 1      14.00000000     285.15000000
  3 83 247      13.96400000     285.15000000
  4 1 1      14.00000000     285.15000000
  4 1 247      13.96400000     285.15000000
  4 2 1      14.00000000     285.15000000
  4 2 247      13.96400000     285.15000000
  4 3 1      14.00000000     285.15000000
  4 3 247      13.96400000     285.15000000
  4 4 1      14.00000000     285.15000000
  4 4 247      13.96400000     285.15000000
  4 5 1      14.00000000     285.15000000
  4 5 247      13.96400000     285.15000000
  4 6 1      14.00000000     285.15000000
  4 6 247      13.96400000     285.15000000
  4 7 1      14.00000000     285.15000000
  4 7 247      13.96400000     285.15000000
  4 8 1      14.00000000     285.15000000
  4 8 247      13.96400000     285.15000000
  4 9 1      14.00000000     285.15000000
  4 9 247      13.96400000     285.15000000
  4 10 1      14.00000000     285.15000000
  4 10 247      13.96400000     285.15000000
  4 11 1      14.00000000     285.15000000
  4 11 247      13.96400000     285.15000000
  4 12 1      14.00000000     285.15000000
  4 12 247      13.96400000     285.15000000
  4 13 1      14.00000000     285.15000000
  4 13 247      13.96400000     285.15000000
  4 14 1      14.00000000     285.15000000
  4 14 247      13.96400000     285.15000000
  4 15 1      14.00000000     285.15000000
  4 15 247      13.96400000     285.15000000
  4 16 1      14.00000000     285.15000000
  4 16 247      13.96400000     285.15000000
  4 17 1      14.00000000     285.15000000
  4 17 247      13.96400000     285.15000000
  4 18 1      14.00000000     285.15000000
  4 18 247      13.96400000     285.15000000
  4 19 1      14.00000000     285.15000000
  4 19 247      13.96400000     285.15000000
  4 20 1      14.00000000     285.15000000
  4 20 247      13.96400000     285.15000000
  4 21 1      14.00000000     285.15000000
  4 21 247      13.96400000     285.15000000
  4 22 1      14.00000000     285.15000000
  4 22 247      13.96400000     285.15000000
  4 23 1      14.00000000     285.15000000
  4 23 247      13.96400000     285.15000000
  4 24 1      14.00000000     285.15000000
  4 24 247      13.96400000     285.15000000
  4 25 1      14.00000000     285.15000000
  4 25 247      13.96400000     285.15000000
  4 26 1      14.00000000     285.15000000
  4 26 247      13.96400000     285.15000000
  4 27 1      14.00000000     285.15000000
  4 27 247      13.96400000     285.15000000
  4 28 1      14.00000000     285.15000000
  4 28 247      13.96400000     285.15000000
  4 29 1      14.00000000     285.15000000
  4 29 247      13.96400000     285.15000000
  4 30 1      14.00000000     285.15000000
  4 30 247      13.96400000     285.15000000
  4 31 1      14.00000000     285.15000000
  4 31 247      13.96400000     285.15000000
  4 32 1      14.00000000     285.15000000
  4 32 247      13.96400000     285.15000000
  4 33 1      14.00000000     285.15000000
  4 33 247      13.96400000     285.15000000
  4 34 1      14.00000000     285.15000000
  4 34 247      13.96400000     285.15000000
  4 35 1      14.00000000     285.15000000
  4 35 247      13.96400000     285.15000000
  4 36 1      14.00000000     285.15000000
  4 36 247      13.96400000     285.15000000
  4 37 1      14.00000000     285.15000000
  4 37 247      13.96400000     285.15000000
  4 38 1      14.00000000     285.15000000
  4 38 247      13.96400000     285.15000000
  4 39 1      14.00000000     285.15000000
  4 39 247      13.96400000     285.15000000
  4 40 1      14.00000000     285.15000000
  4 40 247      13.96400000     285.15000000
  4 41 1      14.00000000     285.15000000
  4 41 247      13.96400000     285.15000000
  4 42 1      14.00000000     285.15000000
  4 42 247      13.96400000     285.15000000
  4 43 1      14.00000000     285.15000000
  4 43 247      13.96400000     285.15000000
  4 44 1      14.00000000     285.15000000
  4 44 247      13.96400000     285.15000000
  4 45 1      14.00000000     285.15000000
  4 45 247      13.96400000     285.15000000
  4 46 1      14.00000000     285.15000000
  4 46 247      13.96400000     285.15000000
  4 47 1      14.00000000     285.15000000
  4 47 247      13.96400000     285.15000000
  4 48 1      14.00000000     285.15000000
  4 48 247      13.96400000     285.15000000
  4 49 1      14.00000000     285.15000000
  4 49 247      13.96400000     285.15000000
  4 50 1      14.00000000     285.15000000
  4 50 247      13.96400000     285.15000000
  4 51 1      14.00000000     285.15000000
  4 51 247      13.96400000     285.15000000
  4 52 1      14.00000000     285.15000000
  4 52 247      13.96400000     285.15000000
  4 53 1      14.00000000     285.15000000
  4 53 247      13.96400000     285.15000000
  4 54 1      14.00000000     285.15000000
  4 54 247      13.96400000     285.15000000
  4 55 1      14.00000000     285.15000000
  4 55 247      13.96400000     285.15000000
  4 56 1      14.00000000     285.15000000
  4 56 247      13.96400000     285.15000000
  4 57 1      14.00000000     285.15000000
  4 57 247      13.96400000     285.15000000
  4 58 1      14.00000000     285.15000000
  4 58 247      13.96400000     285.15000000
  4 59 1      14.00000000     285.15000000
  4 59 247      13.96400000     285.15000000
  4 60 1      14.00000000     285.15000000
  4 60 247      13.96400000     285.15000000
  4 61 1      14.00000000     285.15000000
  4 61 247      13.96400000     285.15000000
  4 62 1      14.00000000     285.15000000
  4 62 247      13.96400000     285.15000000
  4 63 1      14.00000000     285.15000000
  4 63 247      13.96400000     285.15000000
  4 64 1      14.00000000     285.15000000
  4 64 247      13.96400000     285.15000000
  4 65 1      14.00000000     285.15000000
  4 65 247      13.96400000     285.15000000
  4 66 1      14.00000000     285.15000000
  4 66 247      13.96400000     285.15000000
  4 67 1      14.00000000     285.15000000
  4 67 247      13.96400000     285.15000000
  4 68 1      14.00000000     285.15000000
  4 68 247      13.96400000     285.15000000
  4 69 1      14.00000000     285.15000000
  4 69 247      13.96400000     285.15000000
  4 70 1      14.00000000     285.15000000
  4 70 247      13.96400000     285.15000000
  4 71 1      14.00000000     285.15000000
  4 71 247      13.96400000     285.15000000
  4 72 1      14.00000000     285.15000000
  4 72 247      13.96400000     285.15000000
  4 73 1      14.00000000     285.15000000
  4 73 247      13.96400000     285.15000000
  4 74 1      14.00000000     285.15000000
  4 74 247      13.96400000     285.15000000
  4 75 1      14.00000000     285.15000000
  4 75 247      13.96400000     285.15000000
  4 76 1      14.00000000     285.15000000
  4 76 247      13.96400000     285.15000000
  4 77 1      14.00000000     285.15000000
  4 77 247      13.96400000     285.15000000
  4 78 1      14.00000000     285.15000000
  4 78 247      13.96400000     285.15000000
  4 79 1      14.00000000     285.15000000
  4 79 247      13.96400000     285.15000000
  4 80 1      14.00000000     285.15000000
  4 80 247      13.96400000     285.15000000
  4 81 1      14.00000000     285.15000000
  4 81 247      13.96400000     285.15000000
  4 82 1      14.00000000     285.15000000
  4 82 247      13.96400000     285.15000000
  4 83 1      14.00000000     285.15000000
  4 83 247      13.96400000     285.15000000
  5 1 1      14.00000000     285.15000000
  5 1 247      13.96400000     285.15000000
  5 2 1      14.00000000     285.15000000
  5 2 247      13.96400000     285.15000000
  5 3 1      14.00000000     285.15000000
  5 3 247      13.96400000     285.15000000
  5 4 1      14.00000000     285.15000000
  5 4 247      13.96400000     285.15000000
  5 5 1      14.00000000     285.15000000
  5 5 247      13.96400000     285.15000000
  5 6 1      14.00000000     285.15000000
  5 6 247      13.96400000     285.15000000
  5 7 1      14.00000000     285.15000000
  5 7 247      13.96400000     285.15000000
  5 8 1      14.00000000     285.15000000