# File generated by Flopy version 3.3.5 on 03/04/2022 at 11:17:58.
BEGIN options
  SAVE_FLOWS
END options

BEGIN packages
  DIS6  .\gwf-hecht-mendez.dis  dis
  IC6  .\gwf-hecht-mendez.ic  ic
  NPF6  .\gwf-hecht-mendez.npf  npf
  STO6  .\gwf-hecht-mendez.sto  sto
  CHD6  .\gwf-hecht-mendez.chd  chd-1
  OC6  .\gwf-hecht-mendez.oc  oc
END packages

