# File generated by Flopy version 3.3.5 on 03/04/2022 at 11:17:58.
BEGIN options
END options

BEGIN timing
  TDIS6  gwf-hecht-mendez.tdis
END timing

BEGIN models
  gwf6  gwf-hecht-mendez.nam  gwf-hecht-mendez
END models

BEGIN exchanges
END exchanges

BEGIN solutiongroup  1
  ims6  gwf-hecht-mendez.ims  gwf-hecht-mendez
END solutiongroup  1

