# File generated by Flopy version 3.3.5 on 03/04/2022 at 11:18:07.
BEGIN options
  CONTINUE
END options

BEGIN timing
  TDIS6  trans.tdis
END timing

BEGIN models
  gwt6  trans.nam  trans
END models

BEGIN exchanges
END exchanges

BEGIN solutiongroup  1
  ims6  trans.ims  trans
END solutiongroup  1

