# File generated by Flopy version 3.3.5 on 03/04/2022 at 11:18:07.
BEGIN options
  FLOW_IMBALANCE_CORRECTION
END options

BEGIN packagedata
  GWFHEAD  FILEIN  ../mf6gwf/flow.hds
  GWFBUDGET  FILEIN  ../mf6gwf/flow.bud
END packagedata

