# File generated by Flopy version 3.3.5 on 03/04/2022 at 11:19:06.
BEGIN options
END options

BEGIN griddata
  iconvert
    CONSTANT  1
  ss
    CONSTANT  1.00000000E-05
  sy
    CONSTANT       0.35000000
END griddata

