# File generated by Flopy version 3.3.5 on 03/04/2022 at 11:19:06.
BEGIN griddata
  strt  LAYERED
    INTERNAL  FACTOR  1.0
           1.62500000       1.62500000       1.62500000       1.62500000       1.62500000       1.62500000       1.62500000       1.62500000       1.62500000       1.62500000       1.62500000       1.62500000       1.62500000       1.62500000       1.62500000       1.62500000       1.62500000       1.62500000       1.62500000       1.62500000       1.62500000       1.62500000       1.62500000       1.62500000       1.62500000       1.62500000       1.62500000       1.62500000       1.62500000       1.62500000       1.62500000       1.62500000       1.62500000       1.62500000       1.62500000       1.62500000       1.62500000       1.62500000       1.62500000       1.62500000
    INTERNAL  FACTOR  1.0
           1.62500000       1.62500000       1.62500000       1.62500000       1.62500000       1.62500000       1.62500000       1.62500000       1.62500000       1.62500000       1.62500000       1.62500000       1.62500000       1.62500000       1.62500000       1.62500000       1.62500000       1.62500000       1.62500000       1.62500000       1.62500000       1.62500000       1.62500000       1.62500000       1.62500000       1.62500000       1.62500000       1.62500000       1.62500000       1.62500000       1.62500000       1.62500000       1.62500000       1.62500000       1.62500000       1.62500000       1.62500000       1.62500000       1.62500000       1.62500000
    INTERNAL  FACTOR  1.0
           1.62500000       1.62500000       1.62500000       1.62500000       1.62500000       1.62500000       1.62500000       1.62500000       1.62500000       1.62500000       1.62500000       1.62500000       1.62500000       1.62500000       1.62500000       1.62500000       1.62500000       1.62500000       1.62500000       1.62500000       1.62500000       1.62500000       1.62500000       1.62500000       1.62500000       1.62500000       1.62500000       1.62500000       1.62500000       1.62500000       1.62500000       1.62500000       1.62500000       1.62500000       1.62500000       1.62500000       1.62500000       1.62500000       1.62500000       1.62500000
    INTERNAL  FACTOR  1.0
           1.62500000       1.62500000       1.62500000       1.62500000       1.62500000       1.62500000       1.62500000       1.62500000       1.62500000       1.62500000       1.62500000       1.62500000       1.62500000       1.62500000       1.62500000       1.62500000       1.62500000       1.62500000       1.62500000       1.62500000       1.62500000       1.62500000       1.62500000       1.62500000       1.62500000       1.62500000       1.62500000       1.62500000       1.62500000       1.62500000       1.62500000       1.62500000       1.62500000       1.62500000       1.62500000       1.62500000       1.62500000       1.62500000       1.62500000       1.62500000
    INTERNAL  FACTOR  1.0
           1.62500000       1.62500000       1.62500000       1.62500000       1.62500000       1.62500000       1.62500000       1.62500000       1.62500000       1.62500000       1.62500000       1.62500000       1.62500000       1.62500000       1.62500000       1.62500000       1.62500000       1.62500000       1.62500000       1.62500000       1.62500000       1.62500000       1.62500000       1.62500000       1.62500000       1.62500000       1.62500000       1.62500000       1.62500000       1.62500000       1.62500000       1.62500000       1.62500000       1.62500000       1.62500000       1.62500000       1.62500000       1.62500000       1.62500000       1.62500000
    INTERNAL  FACTOR  1.0
           1.62500000       1.62500000       1.62500000       1.62500000       1.62500000       1.62500000       1.62500000       1.62500000       1.62500000       1.62500000       1.62500000       1.62500000       1.62500000       1.62500000       1.62500000       1.62500000       1.62500000       1.62500000       1.62500000       1.62500000       1.62500000       1.62500000       1.62500000       1.62500000       1.62500000       1.62500000       1.62500000       1.62500000       1.62500000       1.62500000       1.62500000       1.62500000       1.62500000       1.62500000       1.62500000       1.62500000       1.62500000       1.62500000       1.62500000       1.62500000
    INTERNAL  FACTOR  1.0
           1.62500000       1.62500000       1.62500000       1.62500000       1.62500000       1.62500000       1.62500000       1.62500000       1.62500000       1.62500000       1.62500000       1.62500000       1.62500000       1.62500000       1.62500000       1.62500000       1.62500000       1.62500000       1.62500000       1.62500000       1.62500000       1.62500000       1.62500000       1.62500000       1.62500000       1.62500000       1.62500000       1.62500000       1.62500000       1.62500000       1.62500000       1.62500000       1.62500000       1.62500000       1.62500000       1.62500000       1.62500000       1.62500000       1.62500000       1.62500000
    INTERNAL  FACTOR  1.0
           1.62500000       1.62500000       1.62500000       1.62500000       1.62500000       1.62500000       1.62500000       1.62500000       1.62500000       1.62500000       1.62500000       1.62500000       1.62500000       1.62500000       1.62500000       1.62500000       1.62500000       1.62500000       1.62500000       1.62500000       1.62500000       1.62500000       1.62500000       1.62500000       1.62500000       1.62500000       1.62500000       1.62500000       1.62500000       1.62500000       1.62500000       1.62500000       1.62500000       1.62500000       1.62500000       1.62500000       1.62500000       1.62500000       1.62500000       1.62500000
    INTERNAL  FACTOR  1.0
           1.62500000       1.62500000       1.62500000       1.62500000       1.62500000       1.62500000       1.62500000       1.62500000       1.62500000       1.62500000       1.62500000       1.62500000       1.62500000       1.62500000       1.62500000       1.62500000       1.62500000       1.62500000       1.62500000       1.62500000       1.62500000       1.62500000       1.62500000       1.62500000       1.62500000       1.62500000       1.62500000       1.62500000       1.62500000       1.62500000       1.62500000       1.62500000       1.62500000       1.62500000       1.62500000       1.62500000       1.62500000       1.62500000       1.62500000       1.62500000
    INTERNAL  FACTOR  1.0
           1.62500000       1.62500000       1.62500000       1.62500000       1.62500000       1.62500000       1.62500000       1.62500000       1.62500000       1.62500000       1.62500000       1.62500000       1.62500000       1.62500000       1.62500000       1.62500000       1.62500000       1.62500000       1.62500000       1.62500000       1.62500000       1.62500000       1.62500000       1.62500000       1.62500000       1.62500000       1.62500000       1.62500000       1.62500000       1.62500000       1.62500000       1.62500000       1.62500000       1.62500000       1.62500000       1.62500000       1.62500000       1.62500000       1.62500000       1.62500000
    INTERNAL  FACTOR  1.0
           1.62500000       1.62500000       1.62500000       1.62500000       1.62500000       1.62500000       1.62500000       1.62500000       1.62500000       1.62500000       1.62500000       1.62500000       1.62500000       1.62500000       1.62500000       1.62500000       1.62500000       1.62500000       1.62500000       1.62500000       1.62500000       1.62500000       1.62500000       1.62500000       1.62500000       1.62500000       1.62500000       1.62500000       1.62500000       1.62500000       1.62500000       1.62500000       1.62500000       1.62500000       1.62500000       1.62500000       1.62500000       1.62500000       1.62500000       1.62500000
    INTERNAL  FACTOR  1.0
           1.62500000       1.62500000       1.62500000       1.62500000       1.62500000       1.62500000       1.62500000       1.62500000       1.62500000       1.62500000       1.62500000       1.62500000       1.62500000       1.62500000       1.62500000       1.62500000       1.62500000       1.62500000       1.62500000       1.62500000       1.62500000       1.62500000       1.62500000       1.62500000       1.62500000       1.62500000       1.62500000       1.62500000       1.62500000       1.62500000       1.62500000       1.62500000       1.62500000       1.62500000       1.62500000       1.62500000       1.62500000       1.62500000       1.62500000       1.62500000
    INTERNAL  FACTOR  1.0
           1.62500000       1.62500000       1.62500000       1.62500000       1.62500000       1.62500000       1.62500000       1.62500000       1.62500000       1.62500000       1.62500000       1.62500000       1.62500000       1.62500000       1.62500000       1.62500000       1.62500000       1.62500000       1.62500000       1.62500000       1.62500000       1.62500000       1.62500000       1.62500000       1.62500000       1.62500000       1.62500000       1.62500000       1.62500000       1.62500000       1.62500000       1.62500000       1.62500000       1.62500000       1.62500000       1.62500000       1.62500000       1.62500000       1.62500000       1.62500000
    INTERNAL  FACTOR  1.0
           1.62500000       1.62500000       1.62500000       1.62500000       1.62500000       1.62500000       1.62500000       1.62500000       1.62500000       1.62500000       1.62500000       1.62500000       1.62500000       1.62500000       1.62500000       1.62500000       1.62500000       1.62500000       1.62500000       1.62500000       1.62500000       1.62500000       1.62500000       1.62500000       1.62500000       1.62500000       1.62500000       1.62500000       1.62500000       1.62500000       1.62500000       1.62500000       1.62500000       1.62500000       1.62500000       1.62500000       1.62500000       1.62500000       1.62500000       1.62500000
    INTERNAL  FACTOR  1.0
           1.62500000       1.62500000       1.62500000       1.62500000       1.62500000       1.62500000       1.62500000       1.62500000       1.62500000       1.62500000       1.62500000       1.62500000       1.62500000       1.62500000       1.62500000       1.62500000       1.62500000       1.62500000       1.62500000       1.62500000       1.62500000       1.62500000       1.62500000       1.62500000       1.62500000       1.62500000       1.62500000       1.62500000       1.62500000       1.62500000       1.62500000       1.62500000       1.62500000       1.62500000       1.62500000       1.62500000       1.62500000       1.62500000       1.62500000       1.62500000
    INTERNAL  FACTOR  1.0
           1.62500000       1.62500000       1.62500000       1.62500000       1.62500000       1.62500000       1.62500000       1.62500000       1.62500000       1.62500000       1.62500000       1.62500000       1.62500000       1.62500000       1.62500000       1.62500000       1.62500000       1.62500000       1.62500000       1.62500000       1.62500000       1.62500000       1.62500000       1.62500000       1.62500000       1.62500000       1.62500000       1.62500000       1.62500000       1.62500000       1.62500000       1.62500000       1.62500000       1.62500000       1.62500000       1.62500000       1.62500000       1.62500000       1.62500000       1.62500000
    INTERNAL  FACTOR  1.0
           1.62500000       1.62500000       1.62500000       1.62500000       1.62500000       1.62500000       1.62500000       1.62500000       1.62500000       1.62500000       1.62500000       1.62500000       1.62500000       1.62500000       1.62500000       1.62500000       1.62500000       1.62500000       1.62500000       1.62500000       1.62500000       1.62500000       1.62500000       1.62500000       1.62500000       1.62500000       1.62500000       1.62500000       1.62500000       1.62500000       1.62500000       1.62500000       1.62500000       1.62500000       1.62500000       1.62500000       1.62500000       1.62500000       1.62500000       1.62500000
    INTERNAL  FACTOR  1.0
           1.62500000       1.62500000       1.62500000       1.62500000       1.62500000       1.62500000       1.62500000       1.62500000       1.62500000       1.62500000       1.62500000       1.62500000       1.62500000       1.62500000       1.62500000       1.62500000       1.62500000       1.62500000       1.62500000       1.62500000       1.62500000       1.62500000       1.62500000       1.62500000       1.62500000       1.62500000       1.62500000       1.62500000       1.62500000       1.62500000       1.62500000       1.62500000       1.62500000       1.62500000       1.62500000       1.62500000       1.62500000       1.62500000       1.62500000       1.62500000
    INTERNAL  FACTOR  1.0
           1.62500000       1.62500000       1.62500000       1.62500000       1.62500000       1.62500000       1.62500000       1.62500000       1.62500000       1.62500000       1.62500000       1.62500000       1.62500000       1.62500000       1.62500000       1.62500000       1.62500000       1.62500000       1.62500000       1.62500000       1.62500000       1.62500000       1.62500000       1.62500000       1.62500000       1.62500000       1.62500000       1.62500000       1.62500000       1.62500000       1.62500000       1.62500000       1.62500000       1.62500000       1.62500000       1.62500000       1.62500000       1.62500000       1.62500000       1.62500000
    INTERNAL  FACTOR  1.0
           1.62500000       1.62500000       1.62500000       1.62500000       1.62500000       1.62500000       1.62500000       1.62500000       1.62500000       1.62500000       1.62500000       1.62500000       1.62500000       1.62500000       1.62500000       1.62500000       1.62500000       1.62500000       1.62500000       1.62500000       1.62500000       1.62500000       1.62500000       1.62500000       1.62500000       1.62500000       1.62500000       1.62500000       1.62500000       1.62500000       1.62500000       1.62500000       1.62500000       1.62500000       1.62500000       1.62500000       1.62500000       1.62500000       1.62500000       1.62500000
END griddata

