# File generated by Flopy version 3.3.5 on 03/04/2022 at 11:19:06.
BEGIN options
  BUDGET  FILEOUT  gwt-uzt-2d-mf6.cbc
  CONCENTRATION  FILEOUT  gwt-uzt-2d-mf6.ucn
  CONCENTRATION  PRINT_FORMAT  COLUMNS  10  WIDTH  15  DIGITS  6  GENERAL
END options

BEGIN period  1
  SAVE  CONCENTRATION  ALL
  PRINT  CONCENTRATION  LAST
  PRINT  BUDGET  ALL
END period  1

