# File generated by Flopy version 3.3.5 on 03/04/2022 at 11:19:06.
BEGIN options
END options

BEGIN griddata
  porosity
    CONSTANT       0.45000000
END griddata

