# File generated by Flopy version 3.3.5 on 03/04/2022 at 11:14:11.
BEGIN options
  READASARRAYS
END options

BEGIN period  1
  surface
    INTERNAL  FACTOR  1.0
       160.00000000     159.01960784     157.45098039     155.88235294     154.31372549     152.74509804     151.56862745     150.78431373     150.00000000     149.21568627     148.43137255     147.25490196     145.68627451     144.11764706     142.54901961     140.98039216     140.00000000
       160.00000000     159.01960784     157.45098039     155.88235294     154.31372549     152.74509804     151.56862745     150.78431373     150.00000000     149.21568627     148.43137255     147.25490196     145.68627451     144.11764706     142.54901961     140.98039216     140.00000000
       160.00000000     159.01960784     157.45098039     155.88235294     154.31372549     152.74509804     151.56862745     150.78431373     150.00000000     149.21568627     148.43137255     147.25490196     145.68627451     144.11764706     142.54901961     140.98039216     140.00000000
       160.00000000     159.01960784     157.45098039     155.88235294     154.31372549     152.74509804     151.56862745     150.78431373     150.00000000     149.21568627     148.43137255     147.25490196     145.68627451     144.11764706     142.54901961     140.98039216     140.00000000
       160.00000000     159.01960784     157.45098039     155.88235294     154.31372549     152.74509804     151.56862745     150.78431373     150.00000000     149.21568627     148.43137255     147.25490196     145.68627451     144.11764706     142.54901961     140.98039216     140.00000000
       160.00000000     159.01960784     157.45098039     155.88235294     154.31372549     152.74509804     151.56862745     150.78431373     150.00000000     149.21568627     148.43137255     147.25490196     145.68627451     144.11764706     142.54901961     140.98039216     140.00000000
       160.00000000     159.01960784     157.45098039     155.88235294     154.31372549     152.74509804     100.00000000     100.00000000     100.00000000     100.00000000     100.00000000     147.25490196     145.68627451     144.11764706     142.54901961     140.98039216     140.00000000
       160.00000000     159.01960784     157.45098039     155.88235294     154.31372549     152.74509804     100.00000000      95.00000000      95.00000000      95.00000000     100.00000000     147.25490196     145.68627451     144.11764706     142.54901961     140.98039216     140.00000000
       160.00000000     159.01960784     157.45098039     155.88235294     154.31372549     152.74509804     100.00000000      95.00000000      95.00000000      95.00000000     100.00000000     147.25490196     145.68627451     144.11764706     142.54901961     140.98039216     140.00000000
       160.00000000     159.01960784     157.45098039     155.88235294     154.31372549     152.74509804     100.00000000      95.00000000      95.00000000      95.00000000     100.00000000     147.25490196     145.68627451     144.11764706     142.54901961     140.98039216     140.00000000
       160.00000000     159.01960784     157.45098039     155.88235294     154.31372549     152.74509804     100.00000000     100.00000000     100.00000000     100.00000000     100.00000000     147.25490196     145.68627451     144.11764706     142.54901961     140.98039216     140.00000000
       160.00000000     159.01960784     157.45098039     155.88235294     154.31372549     152.74509804     151.56862745     150.78431373     150.00000000     149.21568627     148.43137255     147.25490196     145.68627451     144.11764706     142.54901961     140.98039216     140.00000000
       160.00000000     159.01960784     157.45098039     155.88235294     154.31372549     152.74509804     151.56862745     150.78431373     150.00000000     149.21568627     148.43137255     147.25490196     145.68627451     144.11764706     142.54901961     140.98039216     140.00000000
       160.00000000     159.01960784     157.45098039     155.88235294     154.31372549     152.74509804     151.56862745     150.78431373     150.00000000     149.21568627     148.43137255     147.25490196     145.68627451     144.11764706     142.54901961     140.98039216     140.00000000
       160.00000000     159.01960784     157.45098039     155.88235294     154.31372549     152.74509804     151.56862745     150.78431373     150.00000000     149.21568627     148.43137255     147.25490196     145.68627451     144.11764706     142.54901961     140.98039216     140.00000000
       160.00000000     159.01960784     157.45098039     155.88235294     154.31372549     152.74509804     151.56862745     150.78431373     150.00000000     149.21568627     148.43137255     147.25490196     145.68627451     144.11764706     142.54901961     140.98039216     140.00000000
       160.00000000     159.01960784     157.45098039     155.88235294     154.31372549     152.74509804     100.00000000     100.00000000     100.00000000     100.00000000     100.00000000     147.25490196     145.68627451     144.11764706     142.54901961     140.98039216     140.00000000
       160.00000000     159.01960784     157.45098039     155.88235294     154.31372549     152.74509804     100.00000000      95.00000000      95.00000000      95.00000000     100.00000000     147.25490196     145.68627451     144.11764706     142.54901961     140.98039216     140.00000000
       160.00000000     159.01960784     157.45098039     155.88235294     154.31372549     152.74509804     100.00000000      95.00000000      95.00000000      95.00000000     100.00000000     147.25490196     145.68627451     144.11764706     142.54901961     140.98039216     140.00000000
       160.00000000     159.01960784     157.45098039     155.88235294     154.31372549     152.74509804     100.00000000      95.00000000      95.00000000      95.00000000     100.00000000     147.25490196     145.68627451     144.11764706     142.54901961     140.98039216     140.00000000
       160.00000000     159.01960784     157.45098039     155.88235294     154.31372549     152.74509804     100.00000000     100.00000000     100.00000000     100.00000000     100.00000000     147.25490196     145.68627451     144.11764706     142.54901961     140.98039216     140.00000000
       160.00000000     159.01960784     157.45098039     155.88235294     154.31372549     152.74509804     151.56862745     150.78431373     150.00000000     149.21568627     148.43137255     147.25490196     145.68627451     144.11764706     142.54901961     140.98039216     140.00000000
       160.00000000     159.01960784     157.45098039     155.88235294     154.31372549     152.74509804     151.56862745     150.78431373     150.00000000     149.21568627     148.43137255     147.25490196     145.68627451     144.11764706     142.54901961     140.98039216     140.00000000
       160.00000000     159.01960784     157.45098039     155.88235294     154.31372549     152.74509804     151.56862745     150.78431373     150.00000000     149.21568627     148.43137255     147.25490196     145.68627451     144.11764706     142.54901961     140.98039216     140.00000000
       160.00000000     159.01960784     157.45098039     155.88235294     154.31372549     152.74509804     151.56862745     150.78431373     150.00000000     149.21568627     148.43137255     147.25490196     145.68627451     144.11764706     142.54901961     140.98039216     140.00000000
       160.00000000     159.01960784     157.45098039     155.88235294     154.31372549     152.74509804     151.56862745     150.78431373     150.00000000     149.21568627     148.43137255     147.25490196     145.68627451     144.11764706     142.54901961     140.98039216     140.00000000
       160.00000000     159.01960784     157.45098039     155.88235294     154.31372549     152.74509804     151.56862745     150.78431373     150.00000000     149.21568627     148.43137255     147.25490196     145.68627451     144.11764706     142.54901961     140.98039216     140.00000000
  rate
    CONSTANT       0.01410000
  depth
    CONSTANT      15.00000000
END period  1

