# File generated by Flopy version 3.3.5 on 03/04/2022 at 11:14:11.
BEGIN options
  PRINT_STAGE
  PRINT_FLOWS
  MOVER
  UNIT_CONVERSION  1.28390400E+05
END options

BEGIN dimensions
  NREACHES  22
END dimensions

BEGIN packagedata
  1  1 2 5    1000.00000000       5.00000000       0.00110345     123.94827000       0.50000000       0.50000000  0.050000001  1       1.00000000  0
  2  1 3 5    1000.00000000       5.00000000       0.00110345     122.84483000       0.50000000       0.50000000  0.050000001  2       1.00000000  0
  3  1 4 5    1000.00000000       5.00000000       0.00110345     121.74138000       0.50000000       0.50000000  0.050000001  2       1.00000000  0
  4  1 4 6    1000.00000000       5.00000000       0.00110345     120.63793000       0.50000000       0.50000000  0.050000001  2       1.00000000  0
  5  1 4 7     500.00000000       5.00000000       0.00110345     119.81035000       0.50000000       0.50000000  0.050000001  2       1.00000000  0
  6  1 4 8     750.00000000       5.00000000       0.00110345     119.12069000       0.50000000       0.50000000  0.050000001  2       1.00000000  0
  7  1 5 8    1000.00000000       5.00000000       0.00110345     118.15517000       0.50000000       0.50000000  0.050000001  2       1.00000000  0
  8  1 6 8    1000.00000000       5.00000000       0.00110345     117.05173000       0.50000000       0.50000000  0.050000001  1       1.00000000  0
  9  1 12 9    1000.00000000       5.00000000  8.20632000E-04     114.43968000       0.50000000       0.50000000  0.050000001  1       1.00000000  0
  10  1 13 9    1000.00000000       5.00000000  8.20632000E-04     113.61905000       0.50000000       0.50000000  0.050000001  2       1.00000000  0
  11  1 14 10     559.00000000       5.00000000  8.20632000E-04     112.97937000       0.50000000       0.50000000  0.050000001  2       1.00000000  0
  12  1 14 10     559.00000000       5.00000000  8.20632000E-04     112.52063000       0.50000000       0.50000000  0.050000001  2       1.00000000  0
  13  1 15 10    1000.00000000       5.00000000  8.20632000E-04     111.88095000       0.50000000       0.50000000  0.050000001  2       1.00000000  0
  14  1 16 10    1000.00000000       5.00000000  8.20632000E-04     111.06032000       0.50000000       0.50000000  0.050000001  1       1.00000000  0
  15  1 22 10    1000.00000000       5.00000000  9.45820000E-04     108.95569000       0.50000000       0.50000000  0.050000001  1       1.00000000  0
  16  1 23 10     750.00000000       5.00000000  9.45820000E-04     108.12810000       0.50000000       0.50000000  0.050000001  2       1.00000000  0
  17  1 23 11     500.00000000       5.00000000  9.45820000E-04     107.53696000       0.50000000       0.50000000  0.050000001  2       1.00000000  0
  18  1 23 12    1000.00000000       5.00000000  9.45820000E-04     106.82759000       0.50000000       0.50000000  0.050000001  2       1.00000000  0
  19  1 23 13    1000.00000000       5.00000000  9.45820000E-04     105.88177000       0.50000000       0.50000000  0.050000001  2       1.00000000  0
  20  1 23 14    1000.00000000       5.00000000  9.45820000E-04     104.93595000       0.50000000       0.50000000  0.050000001  2       1.00000000  0
  21  1 23 15    1000.00000000       5.00000000  9.45820000E-04     103.99014000       0.50000000       0.50000000  0.050000001  2       1.00000000  0
  22  1 23 16    1000.00000000       5.00000000  9.45820000E-04     103.04431000       0.50000000       0.50000000  0.050000001  1       1.00000000  0
END packagedata

BEGIN connectiondata
  1  -2
  2  1  -3
  3  2  -4
  4  3  -5
  5  4  -6
  6  5  -7
  7  6  -8
  8  7
  9  -10
  10  9  -11
  11  10  -12
  12  11  -13
  13  12  -14
  14  13
  15  -16
  16  15  -17
  17  16  -18
  18  17  -19
  19  18  -20
  20  19  -21
  21  20  -22
  22  21
END connectiondata

BEGIN period  1
  1  inflow  691200.0
END period  1

