# File generated by Flopy version 3.3.5 on 03/04/2022 at 11:14:11.
BEGIN options
END options

BEGIN dimensions
  MAXBOUND  270
END dimensions

BEGIN period  1
  1 1 1     160.00000000
  1 2 1     160.00000000
  1 3 1     160.00000000
  1 4 1     160.00000000
  1 5 1     160.00000000
  1 6 1     160.00000000
  1 7 1     160.00000000
  1 8 1     160.00000000
  1 9 1     160.00000000
  1 10 1     160.00000000
  1 11 1     160.00000000
  1 12 1     160.00000000
  1 13 1     160.00000000
  1 14 1     160.00000000
  1 15 1     160.00000000
  1 16 1     160.00000000
  1 17 1     160.00000000
  1 18 1     160.00000000
  1 19 1     160.00000000
  1 20 1     160.00000000
  1 21 1     160.00000000
  1 22 1     160.00000000
  1 23 1     160.00000000
  1 24 1     160.00000000
  1 25 1     160.00000000
  1 26 1     160.00000000
  1 27 1     160.00000000
  1 1 17     140.00000000
  1 2 17     140.00000000
  1 3 17     140.00000000
  1 4 17     140.00000000
  1 5 17     140.00000000
  1 6 17     140.00000000
  1 7 17     140.00000000
  1 8 17     140.00000000
  1 9 17     140.00000000
  1 10 17     140.00000000
  1 11 17     140.00000000
  1 12 17     140.00000000
  1 13 17     140.00000000
  1 14 17     140.00000000
  1 15 17     140.00000000
  1 16 17     140.00000000
  1 17 17     140.00000000
  1 18 17     140.00000000
  1 19 17     140.00000000
  1 20 17     140.00000000
  1 21 17     140.00000000
  1 22 17     140.00000000
  1 23 17     140.00000000
  1 24 17     140.00000000
  1 25 17     140.00000000
  1 26 17     140.00000000
  1 27 17     140.00000000
  2 1 1     160.00000000
  2 2 1     160.00000000
  2 3 1     160.00000000
  2 4 1     160.00000000
  2 5 1     160.00000000
  2 6 1     160.00000000
  2 7 1     160.00000000
  2 8 1     160.00000000
  2 9 1     160.00000000
  2 10 1     160.00000000
  2 11 1     160.00000000
  2 12 1     160.00000000
  2 13 1     160.00000000
  2 14 1     160.00000000
  2 15 1     160.00000000
  2 16 1     160.00000000
  2 17 1     160.00000000
  2 18 1     160.00000000
  2 19 1     160.00000000
  2 20 1     160.00000000
  2 21 1     160.00000000
  2 22 1     160.00000000
  2 23 1     160.00000000
  2 24 1     160.00000000
  2 25 1     160.00000000
  2 26 1     160.00000000
  2 27 1     160.00000000
  2 1 17     140.00000000
  2 2 17     140.00000000
  2 3 17     140.00000000
  2 4 17     140.00000000
  2 5 17     140.00000000
  2 6 17     140.00000000
  2 7 17     140.00000000
  2 8 17     140.00000000
  2 9 17     140.00000000
  2 10 17     140.00000000
  2 11 17     140.00000000
  2 12 17     140.00000000
  2 13 17     140.00000000
  2 14 17     140.00000000
  2 15 17     140.00000000
  2 16 17     140.00000000
  2 17 17     140.00000000
  2 18 17     140.00000000
  2 19 17     140.00000000
  2 20 17     140.00000000
  2 21 17     140.00000000
  2 22 17     140.00000000
  2 23 17     140.00000000
  2 24 17     140.00000000
  2 25 17     140.00000000
  2 26 17     140.00000000
  2 27 17     140.00000000
  3 1 1     160.00000000
  3 2 1     160.00000000
  3 3 1     160.00000000
  3 4 1     160.00000000
  3 5 1     160.00000000
  3 6 1     160.00000000
  3 7 1     160.00000000
  3 8 1     160.00000000
  3 9 1     160.00000000
  3 10 1     160.00000000
  3 11 1     160.00000000
  3 12 1     160.00000000
  3 13 1     160.00000000
  3 14 1     160.00000000
  3 15 1     160.00000000
  3 16 1     160.00000000
  3 17 1     160.00000000
  3 18 1     160.00000000
  3 19 1     160.00000000
  3 20 1     160.00000000
  3 21 1     160.00000000
  3 22 1     160.00000000
  3 23 1     160.00000000
  3 24 1     160.00000000
  3 25 1     160.00000000
  3 26 1     160.00000000
  3 27 1     160.00000000
  3 1 17     140.00000000
  3 2 17     140.00000000
  3 3 17     140.00000000
  3 4 17     140.00000000
  3 5 17     140.00000000
  3 6 17     140.00000000
  3 7 17     140.00000000
  3 8 17     140.00000000
  3 9 17     140.00000000
  3 10 17     140.00000000
  3 11 17     140.00000000
  3 12 17     140.00000000
  3 13 17     140.00000000
  3 14 17     140.00000000
  3 15 17     140.00000000
  3 16 17     140.00000000
  3 17 17     140.00000000
  3 18 17     140.00000000
  3 19 17     140.00000000
  3 20 17     140.00000000
  3 21 17     140.00000000
  3 22 17     140.00000000
  3 23 17     140.00000000
  3 24 17     140.00000000
  3 25 17     140.00000000
  3 26 17     140.00000000
  3 27 17     140.00000000
  4 1 1     160.00000000
  4 2 1     160.00000000
  4 3 1     160.00000000
  4 4 1     160.00000000
  4 5 1     160.00000000
  4 6 1     160.00000000
  4 7 1     160.00000000
  4 8 1     160.00000000
  4 9 1     160.00000000
  4 10 1     160.00000000
  4 11 1     160.00000000
  4 12 1     160.00000000
  4 13 1     160.00000000
  4 14 1     160.00000000
  4 15 1     160.00000000
  4 16 1     160.00000000
  4 17 1     160.00000000
  4 18 1     160.00000000
  4 19 1     160.00000000
  4 20 1     160.00000000
  4 21 1     160.00000000
  4 22 1     160.00000000
  4 23 1     160.00000000
  4 24 1     160.00000000
  4 25 1     160.00000000
  4 26 1     160.00000000
  4 27 1     160.00000000
  4 1 17     140.00000000
  4 2 17     140.00000000
  4 3 17     140.00000000
  4 4 17     140.00000000
  4 5 17     140.00000000
  4 6 17     140.00000000
  4 7 17     140.00000000
  4 8 17     140.00000000
  4 9 17     140.00000000
  4 10 17     140.00000000
  4 11 17     140.00000000
  4 12 17     140.00000000
  4 13 17     140.00000000
  4 14 17     140.00000000
  4 15 17     140.00000000
  4 16 17     140.00000000
  4 17 17     140.00000000
  4 18 17     140.00000000
  4 19 17     140.00000000
  4 20 17     140.00000000
  4 21 17     140.00000000
  4 22 17     140.00000000
  4 23 17     140.00000000
  4 24 17     140.00000000
  4 25 17     140.00000000
  4 26 17     140.00000000
  4 27 17     140.00000000
  5 1 1     160.00000000
  5 2 1     160.00000000
  5 3 1     160.00000000
  5 4 1     160.00000000
  5 5 1     160.00000000
  5 6 1     160.00000000
  5 7 1     160.00000000
  5 8 1     160.00000000
  5 9 1     160.00000000
  5 10 1     160.00000000
  5 11 1     160.00000000
  5 12 1     160.00000000
  5 13 1     160.00000000
  5 14 1     160.00000000
  5 15 1     160.00000000
  5 16 1     160.00000000
  5 17 1     160.00000000
  5 18 1     160.00000000
  5 19 1     160.00000000
  5 20 1     160.00000000
  5 21 1     160.00000000
  5 22 1     160.00000000
  5 23 1     160.00000000
  5 24 1     160.00000000
  5 25 1     160.00000000
  5 26 1     160.00000000
  5 27 1     160.00000000
  5 1 17     140.00000000
  5 2 17     140.00000000
  5 3 17     140.00000000
  5 4 17     140.00000000
  5 5 17     140.00000000
  5 6 17     140.00000000
  5 7 17     140.00000000
  5 8 17     140.00000000
  5 9 17     140.00000000
  5 10 17     140.00000000
  5 11 17     140.00000000
  5 12 17     140.00000000
  5 13 17     140.00000000
  5 14 17     140.00000000
  5 15 17     140.00000000
  5 16 17     140.00000000
  5 17 17     140.00000000
  5 18 17     140.00000000
  5 19 17     140.00000000
  5 20 17     140.00000000
  5 21 17     140.00000000
  5 22 17     140.00000000
  5 23 17     140.00000000
  5 24 17     140.00000000
  5 25 17     140.00000000
  5 26 17     140.00000000
  5 27 17     140.00000000
END period  1

