# File generated by Flopy version 3.3.5 on 03/04/2022 at 11:14:11.
BEGIN griddata
  strt
    CONSTANT     115.00000000
END griddata

