# File generated by Flopy version 3.3.5 on 03/04/2022 at 11:14:11.
BEGIN options
END options

BEGIN continuous  FILEOUT  ex-gwf-lak-p02.gwf.obs.csv
  A  head  1 4 4
  B  head  1 14 9
  C  head  1 24 14
END continuous  FILEOUT  ex-gwf-lak-p02.gwf.obs.csv

