# File generated by Flopy version 3.3.5 on 03/04/2022 at 11:14:11.
BEGIN options
  READASARRAYS
END options

BEGIN period  1
  recharge
    CONSTANT       0.01160000
END period  1

