# File generated by Flopy version 3.3.5 on 03/04/2022 at 11:14:11.
BEGIN options
  SAVE_FLOWS
  NEWTON
END options

BEGIN packages
  DIS6  .\ex-gwf-lak-p02.dis  dis
  OBS6  .\ex-gwf-lak-p02.gwf.obs  obs_0
  NPF6  .\ex-gwf-lak-p02.npf  npf
  STO6  .\ex-gwf-lak-p02.sto  sto
  IC6  .\ex-gwf-lak-p02.ic  ic
  CHD6  .\ex-gwf-lak-p02.chd  chd_0
  RCH6  .\ex-gwf-lak-p02.rcha  rcha_0
  EVT6  .\ex-gwf-lak-p02.evta  evta_0
  LAK6  .\ex-gwf-lak-p02.lak  lak-1
  SFR6  .\ex-gwf-lak-p02.sfr  sfr-1
  MVR6  .\ex-gwf-lak-p02.mvr  mvr
  OC6  .\ex-gwf-lak-p02.oc  oc
END packages

