# File generated by Flopy version 3.3.5 on 03/04/2022 at 11:14:11.
BEGIN options
  PRINT_STAGE
  OBS6  FILEIN  ex-gwf-lak-p02.lak.obs
  MOVER
  TIME_CONVERSION   86400.00000000
  LENGTH_CONVERSION       3.28081000
END options

BEGIN dimensions
  NLAKES  2
  NOUTLETS  2
END dimensions

BEGIN packagedata
  1     130.00000000  57
  2     130.00000000  57
END packagedata

BEGIN connectiondata
  1  1  1 6 7  horizontal       0.10000000     102.00000000     200.00000000     500.00000000     500.00000000
  1  2  1 7 6  horizontal       0.10000000     102.00000000     200.00000000     500.00000000     500.00000000
  1  3  2 7 7  vertical       0.10000000       0.00000000       0.00000000       0.00000000       0.00000000
  1  4  1 6 8  horizontal       0.10000000     102.00000000     200.00000000     500.00000000     500.00000000
  1  5  2 7 8  vertical       0.10000000       0.00000000       0.00000000       0.00000000       0.00000000
  1  6  1 6 9  horizontal       0.10000000     102.00000000     200.00000000     500.00000000     500.00000000
  1  7  2 7 9  vertical       0.10000000       0.00000000       0.00000000       0.00000000       0.00000000
  1  8  1 6 10  horizontal       0.10000000     102.00000000     200.00000000     500.00000000     500.00000000
  1  9  2 7 10  vertical       0.10000000       0.00000000       0.00000000       0.00000000       0.00000000
  1  10  1 6 11  horizontal       0.10000000     102.00000000     200.00000000     500.00000000     500.00000000
  1  11  1 7 12  horizontal       0.10000000     102.00000000     200.00000000     500.00000000     500.00000000
  1  12  2 7 11  vertical       0.10000000       0.00000000       0.00000000       0.00000000       0.00000000
  1  13  1 8 6  horizontal       0.10000000     102.00000000     200.00000000     500.00000000     500.00000000
  1  14  2 8 7  vertical       0.10000000       0.00000000       0.00000000       0.00000000       0.00000000
  1  15  1 8 12  horizontal       0.10000000     102.00000000     200.00000000     500.00000000     500.00000000
  1  16  2 8 11  vertical       0.10000000       0.00000000       0.00000000       0.00000000       0.00000000
  1  17  1 9 6  horizontal       0.10000000     102.00000000     200.00000000     500.00000000     500.00000000
  1  18  2 9 7  vertical       0.10000000       0.00000000       0.00000000       0.00000000       0.00000000
  1  19  1 9 12  horizontal       0.10000000     102.00000000     200.00000000     500.00000000     500.00000000
  1  20  2 9 11  vertical       0.10000000       0.00000000       0.00000000       0.00000000       0.00000000
  1  21  1 10 6  horizontal       0.10000000     102.00000000     200.00000000     500.00000000     500.00000000
  1  22  2 10 7  vertical       0.10000000       0.00000000       0.00000000       0.00000000       0.00000000
  1  23  1 10 12  horizontal       0.10000000     102.00000000     200.00000000     500.00000000     500.00000000
  1  24  2 10 11  vertical       0.10000000       0.00000000       0.00000000       0.00000000       0.00000000
  1  25  1 11 6  horizontal       0.10000000     102.00000000     200.00000000     500.00000000     500.00000000
  1  26  1 12 7  horizontal       0.10000000     102.00000000     200.00000000     500.00000000     500.00000000
  1  27  2 11 7  vertical       0.10000000       0.00000000       0.00000000       0.00000000       0.00000000
  1  28  1 12 8  horizontal       0.10000000     102.00000000     200.00000000     500.00000000     500.00000000
  1  29  2 11 8  vertical       0.10000000       0.00000000       0.00000000       0.00000000       0.00000000
  1  30  1 12 9  horizontal       0.10000000     102.00000000     200.00000000     500.00000000     500.00000000
  1  31  2 11 9  vertical       0.10000000       0.00000000       0.00000000       0.00000000       0.00000000
  1  32  1 12 10  horizontal       0.10000000     102.00000000     200.00000000     500.00000000     500.00000000
  1  33  2 11 10  vertical       0.10000000       0.00000000       0.00000000       0.00000000       0.00000000
  1  34  1 11 12  horizontal       0.10000000     102.00000000     200.00000000     500.00000000     500.00000000
  1  35  1 12 11  horizontal       0.10000000     102.00000000     200.00000000     500.00000000     500.00000000
  1  36  2 11 11  vertical       0.10000000       0.00000000       0.00000000       0.00000000       0.00000000
  1  37  2 7 8  horizontal       0.10000000      97.00000000     102.00000000     250.00000000     500.00000000
  1  38  2 8 7  horizontal       0.10000000      97.00000000     102.00000000     250.00000000     500.00000000
  1  39  3 8 8  vertical       0.10000000       0.00000000       0.00000000       0.00000000       0.00000000
  1  40  2 7 9  horizontal       0.10000000      97.00000000     102.00000000     250.00000000     500.00000000
  1  41  3 8 9  vertical       0.10000000       0.00000000       0.00000000       0.00000000       0.00000000
  1  42  2 7 10  horizontal       0.10000000      97.00000000     102.00000000     250.00000000     500.00000000
  1  43  2 8 11  horizontal       0.10000000      97.00000000     102.00000000     250.00000000     500.00000000
  1  44  3 8 10  vertical       0.10000000       0.00000000       0.00000000       0.00000000       0.00000000
  1  45  2 9 7  horizontal       0.10000000      97.00000000     102.00000000     250.00000000     500.00000000
  1  46  3 9 8  vertical       0.10000000       0.00000000       0.00000000       0.00000000       0.00000000
  1  47  3 9 9  vertical       0.10000000       0.00000000       0.00000000       0.00000000       0.00000000
  1  48  2 9 11  horizontal       0.10000000      97.00000000     102.00000000     250.00000000     500.00000000
  1  49  3 9 10  vertical       0.10000000       0.00000000       0.00000000       0.00000000       0.00000000
  1  50  2 10 7  horizontal       0.10000000      97.00000000     102.00000000     250.00000000     500.00000000
  1  51  2 11 8  horizontal       0.10000000      97.00000000     102.00000000     250.00000000     500.00000000
  1  52  3 10 8  vertical       0.10000000       0.00000000       0.00000000       0.00000000       0.00000000
  1  53  2 11 9  horizontal       0.10000000      97.00000000     102.00000000     250.00000000     500.00000000
  1  54  3 10 9  vertical       0.10000000       0.00000000       0.00000000       0.00000000       0.00000000
  1  55  2 10 11  horizontal       0.10000000      97.00000000     102.00000000     250.00000000     500.00000000
  1  56  2 11 10  horizontal       0.10000000      97.00000000     102.00000000     250.00000000     500.00000000
  1  57  3 10 10  vertical       0.10000000       0.00000000       0.00000000       0.00000000       0.00000000
  2  1  1 16 7  horizontal       0.10000000     102.00000000     200.00000000     500.00000000     500.00000000
  2  2  1 17 6  horizontal       0.10000000     102.00000000     200.00000000     500.00000000     500.00000000
  2  3  2 17 7  vertical       0.10000000       0.00000000       0.00000000       0.00000000       0.00000000
  2  4  1 16 8  horizontal       0.10000000     102.00000000     200.00000000     500.00000000     500.00000000
  2  5  2 17 8  vertical       0.10000000       0.00000000       0.00000000       0.00000000       0.00000000
  2  6  1 16 9  horizontal       0.10000000     102.00000000     200.00000000     500.00000000     500.00000000
  2  7  2 17 9  vertical       0.10000000       0.00000000       0.00000000       0.00000000       0.00000000
  2  8  1 16 10  horizontal       0.10000000     102.00000000     200.00000000     500.00000000     500.00000000
  2  9  2 17 10  vertical       0.10000000       0.00000000       0.00000000       0.00000000       0.00000000
  2  10  1 16 11  horizontal       0.10000000     102.00000000     200.00000000     500.00000000     500.00000000
  2  11  1 17 12  horizontal       0.10000000     102.00000000     200.00000000     500.00000000     500.00000000
  2  12  2 17 11  vertical       0.10000000       0.00000000       0.00000000       0.00000000       0.00000000
  2  13  1 18 6  horizontal       0.10000000     102.00000000     200.00000000     500.00000000     500.00000000
  2  14  2 18 7  vertical       0.10000000       0.00000000       0.00000000       0.00000000       0.00000000
  2  15  1 18 12  horizontal       0.10000000     102.00000000     200.00000000     500.00000000     500.00000000
  2  16  2 18 11  vertical       0.10000000       0.00000000       0.00000000       0.00000000       0.00000000
  2  17  1 19 6  horizontal       0.10000000     102.00000000     200.00000000     500.00000000     500.00000000
  2  18  2 19 7  vertical       0.10000000       0.00000000       0.00000000       0.00000000       0.00000000
  2  19  1 19 12  horizontal       0.10000000     102.00000000     200.00000000     500.00000000     500.00000000
  2  20  2 19 11  vertical       0.10000000       0.00000000       0.00000000       0.00000000       0.00000000
  2  21  1 20 6  horizontal       0.10000000     102.00000000     200.00000000     500.00000000     500.00000000
  2  22  2 20 7  vertical       0.10000000       0.00000000       0.00000000       0.00000000       0.00000000
  2  23  1 20 12  horizontal       0.10000000     102.00000000     200.00000000     500.00000000     500.00000000
  2  24  2 20 11  vertical       0.10000000       0.00000000       0.00000000       0.00000000       0.00000000
  2  25  1 21 6  horizontal       0.10000000     102.00000000     200.00000000     500.00000000     500.00000000
  2  26  1 22 7  horizontal       0.10000000     102.00000000     200.00000000     500.00000000     500.00000000
  2  27  2 21 7  vertical       0.10000000       0.00000000       0.00000000       0.00000000       0.00000000
  2  28  1 22 8  horizontal       0.10000000     102.00000000     200.00000000     500.00000000     500.00000000
  2  29  2 21 8  vertical       0.10000000       0.00000000       0.00000000       0.00000000       0.00000000
  2  30  1 22 9  horizontal       0.10000000     102.00000000     200.00000000     500.00000000     500.00000000
  2  31  2 21 9  vertical       0.10000000       0.00000000       0.00000000       0.00000000       0.00000000
  2  32  1 22 10  horizontal       0.10000000     102.00000000     200.00000000     500.00000000     500.00000000
  2  33  2 21 10  vertical       0.10000000       0.00000000       0.00000000       0.00000000       0.00000000
  2  34  1 21 12  horizontal       0.10000000     102.00000000     200.00000000     500.00000000     500.00000000
  2  35  1 22 11  horizontal       0.10000000     102.00000000     200.00000000     500.00000000     500.00000000
  2  36  2 21 11  vertical       0.10000000       0.00000000       0.00000000       0.00000000       0.00000000
  2  37  2 17 8  horizontal       0.10000000      97.00000000     102.00000000     250.00000000     500.00000000
  2  38  2 18 7  horizontal       0.10000000      97.00000000     102.00000000     250.00000000     500.00000000
  2  39  3 18 8  vertical       0.10000000       0.00000000       0.00000000       0.00000000       0.00000000
  2  40  2 17 9  horizontal       0.10000000      97.00000000     102.00000000     250.00000000     500.00000000
  2  41  3 18 9  vertical       0.10000000       0.00000000       0.00000000       0.00000000       0.00000000
  2  42  2 17 10  horizontal       0.10000000      97.00000000     102.00000000     250.00000000     500.00000000
  2  43  2 18 11  horizontal       0.10000000      97.00000000     102.00000000     250.00000000     500.00000000
  2  44  3 18 10  vertical       0.10000000       0.00000000       0.00000000       0.00000000       0.00000000
  2  45  2 19 7  horizontal       0.10000000      97.00000000     102.00000000     250.00000000     500.00000000
  2  46  3 19 8  vertical       0.10000000       0.00000000       0.00000000       0.00000000       0.00000000
  2  47  3 19 9  vertical       0.10000000       0.00000000       0.00000000       0.00000000       0.00000000
  2  48  2 19 11  horizontal       0.10000000      97.00000000     102.00000000     250.00000000     500.00000000
  2  49  3 19 10  vertical       0.10000000       0.00000000       0.00000000       0.00000000       0.00000000
  2  50  2 20 7  horizontal       0.10000000      97.00000000     102.00000000     250.00000000     500.00000000
  2  51  2 21 8  horizontal       0.10000000      97.00000000     102.00000000     250.00000000     500.00000000
  2  52  3 20 8  vertical       0.10000000       0.00000000       0.00000000       0.00000000       0.00000000
  2  53  2 21 9  horizontal       0.10000000      97.00000000     102.00000000     250.00000000     500.00000000
  2  54  3 20 9  vertical       0.10000000       0.00000000       0.00000000       0.00000000       0.00000000
  2  55  2 20 11  horizontal       0.10000000      97.00000000     102.00000000     250.00000000     500.00000000
  2  56  2 21 10  horizontal       0.10000000      97.00000000     102.00000000     250.00000000     500.00000000
  2  57  3 20 10  vertical       0.10000000       0.00000000       0.00000000       0.00000000       0.00000000
END connectiondata

BEGIN outlets
  1  1  0  manning     114.85000000       5.00000000       0.05000000  8.20632442E-04
  2  2  0  manning     109.42860000       5.00000000       0.05000000  9.45819716E-04
END outlets

BEGIN period  1
  1  rainfall  0.0116
  1  evaporation  0.0103
  2  rainfall  0.0116
  2  evaporation  0.0103
END period  1

