# File generated by Flopy version 3.3.5 on 03/04/2022 at 11:14:11.
BEGIN options
  TIME_UNITS  days
END options

BEGIN dimensions
  NPER  1
END dimensions

BEGIN perioddata
    1500.00000000  200       1.00500000
END perioddata

