# File generated by Flopy version 3.3.5 on 03/04/2022 at 11:13:51.
BEGIN options
  TS6  FILEIN  ex-gwf-csub-p03.head.ts
END options

BEGIN dimensions
  MAXBOUND  4
END dimensions

BEGIN period  1
  1 1 1  upper
  6 1 1  middle
  11 1 1  middle
  13 1 1  lower
END period  1

