# File generated by Flopy version 3.3.5 on 03/04/2022 at 11:13:51.
BEGIN options
  BOUNDNAMES
  PRINT_INPUT
  SAVE_FLOWS
  GAMMAW    9806.65000000
  BETA  4.65120000E-10
  NDELAYCELLS  39
  UPDATE_MATERIAL_PROPERTIES
  SPECIFIED_INITIAL_INTERBED_STATE
  OBS6  FILEIN  ex-gwf-csub-p03b.csub.obs
END options

BEGIN dimensions
  NINTERBEDS  13
END dimensions

BEGIN griddata
  cg_ske_cr  LAYERED
    CONSTANT       0.00000000
    CONSTANT       0.00000000
    CONSTANT       0.00000000
    CONSTANT       0.00000000
    CONSTANT  6.88000000E-06
    CONSTANT       0.00000000
    CONSTANT  6.88000000E-06
    CONSTANT       0.00000000
    CONSTANT       0.00000000
    CONSTANT       0.00000000
    CONSTANT       0.00000000
    CONSTANT  6.88000000E-06
    CONSTANT       0.00000000
    CONSTANT  6.88000000E-06
  cg_theta
    CONSTANT       0.30000000
  sgm
    CONSTANT       1.70000000
  sgs
    CONSTANT       2.00000000
END griddata

BEGIN packagedata
  1  2 1 1  nodelay      47.27000000       5.48649000       1.00000000       0.00135420  8.56970000E-06       0.30000000     999.00000000     999.00000000  CUNIT
  2  3 1 1  nodelay      55.93000000       8.22969000       1.00000000       0.00135420  8.56970000E-06       0.30000000     999.00000000     999.00000000  CUNIT
  3  4 1 1  nodelay      62.76000000       6.40080000       1.00000000       0.00135420  8.56970000E-06       0.30000000     999.00000000     999.00000000  CUNIT
  4  5 1 1  nodelay      75.90000000       2.74320000       1.00000000  2.69120000E-04  1.25590000E-05       0.30000000     999.00000000     999.00000000  NODELAY
  5  7 1 1  nodelay      98.15000000       0.60960000       1.00000000  2.71070000E-04  1.15380000E-05       0.30000000     999.00000000     999.00000000  NODELAY
  6  8 1 1  nodelay     103.33000000       5.18170000       1.00000000       0.00192490  3.42350000E-05       0.30000000     999.00000000     999.00000000  AQUITARD
  7  9 1 1  nodelay     111.86000000       8.53449000       1.00000000       0.00192490  3.42350000E-05       0.30000000     999.00000000     999.00000000  AQUITARD
  8  10 1 1  nodelay     117.35000000       5.48640000       1.00000000       0.00192490  3.42350000E-05       0.30000000     999.00000000     999.00000000  AQUITARD
  9  12 1 1  nodelay     285.60000000       7.62010000       1.00000000  1.46320000E-04  6.39900000E-06       0.30000000     999.00000000     999.00000000  NODELAY
  10  14 1 1  nodelay     339.25000000       0.91440000       1.00000000  2.16550000E-04  9.24190000E-06       0.30000000     999.00000000     999.00000000  NODELAY
  11  5 1 1  delay      75.90000000       2.74320000       1.92000000  2.27170000E-04  1.02920000E-05       0.30000000  4.57000000E-06       6.77000000  DELAY
  12  12 1 1  delay     285.60000000       3.04800000       1.66000000  4.86710000E-04  7.58870000E-06       0.30000000  4.57000000E-06       6.77000000  DELAY
  13  14 1 1  delay     339.25000000       2.74320000       2.85000000       0.00101700  6.86380000E-06       0.30000000  4.57000000E-06       5.55000000  DELAY
END packagedata

