# File generated by Flopy version 3.3.5 on 03/04/2022 at 11:13:44.
BEGIN options
  DIGITS  10
  PRINT_INPUT
END options

BEGIN continuous  FILEOUT  gwf_calib_obs.csv
  w3_1_1  HEAD  3 1 12
END continuous  FILEOUT  gwf_calib_obs.csv

