# File generated by Flopy version 3.3.5 on 03/04/2022 at 11:13:44.
BEGIN options
END options

BEGIN period  1
  PRINT  BUDGET  ALL
END period  1

