# Name file for MT3DMS, generated by Flopy version 3.3.5.
LIST              16  p05-mt.list
FTL               10  mt3d_link.ftl 
BTN               31  p05-mt.btn
ADV               32  p05-mt.adv
DSP               33  p05-mt.dsp
SSM               34  p05-mt.ssm
GCG               35  p05-mt.gcg
