# WEL package for MODFLOW-2005 generated by Flopy 3.3.5
         1         0 
         1         0 # stress period 1
         1        16        16           100.0
