# Name file for MODFLOW-2005, generated by Flopy version 3.3.5.
#xll:0.0; yll:0.0; rotation:0.0; units:meters; lenuni:2; start_datetime:1-1-1970
LIST               2  p05-mf.list
DIS               11  p05-mf.dis
BAS6              13  p05-mf.bas
LPF               15  p05-mf.lpf
WEL               20  p05-mf.wel
SIP               25  p05-mf.sip
LMT6              30  p05-mf.lmt6
