# File generated by Flopy version 3.3.5 on 03/04/2022 at 11:18:27.
BEGIN options
  auxiliary  CONCENTRATION
  PRINT_INPUT
  PRINT_FLOWS
END options

BEGIN dimensions
  MAXBOUND  1
END dimensions

BEGIN period  1
  1 80 21       0.01000000    1000.00000000
END period  1

