# File generated by Flopy version 3.3.5 on 03/04/2022 at 11:18:27.
BEGIN options
END options

BEGIN dimensions
  MAXBOUND  396
END dimensions

BEGIN period  1
  1 1 1      97.11404533
  1 1 100      -0.89095454
  1 2 1      98.10399482
  1 2 100       0.09899495
  1 3 1      99.09394432
  1 3 100       1.08894444
  1 4 1     100.08389381
  1 4 100       2.07889394
  1 5 1     101.07384330
  1 5 100       3.06884343
  1 6 1     102.06379280
  1 6 100       4.05879292
  1 7 1     103.05374229
  1 7 100       5.04874242
  1 8 1     104.04369178
  1 8 100       6.03869191
  1 9 1     105.03364128
  1 9 100       7.02864140
  1 10 1     106.02359077
  1 10 100       8.01859090
  1 11 1     107.01354026
  1 11 100       9.00854039
  1 12 1     108.00348976
  1 12 100       9.99848989
  1 13 1     108.99343925
  1 13 100      10.98843938
  1 14 1     109.98338875
  1 14 100      11.97838887
  1 15 1     110.97333824
  1 15 100      12.96833837
  1 16 1     111.96328773
  1 16 100      13.95828786
  1 17 1     112.95323723
  1 17 100      14.94823735
  1 18 1     113.94318672
  1 18 100      15.93818685
  1 19 1     114.93313621
  1 19 100      16.92813634
  1 20 1     115.92308571
  1 20 100      17.91808584
  1 21 1     116.91303520
  1 21 100      18.90803533
  1 22 1     117.90298470
  1 22 100      19.89798482
  1 23 1     118.89293419
  1 23 100      20.88793432
  1 24 1     119.88288368
  1 24 100      21.87788381
  1 25 1     120.87283318
  1 25 100      22.86783330
  1 26 1     121.86278267
  1 26 100      23.85778280
  1 27 1     122.85273216
  1 27 100      24.84773229
  1 28 1     123.84268166
  1 28 100      25.83768178
  1 29 1     124.83263115
  1 29 100      26.82763128
  1 30 1     125.82258064
  1 30 100      27.81758077
  1 31 1     126.81253014
  1 31 100      28.80753027
  1 32 1     127.80247963
  1 32 100      29.79747976
  1 33 1     128.79242913
  1 33 100      30.78742925
  1 34 1     129.78237862
  1 34 100      31.77737875
  1 35 1     130.77232811
  1 35 100      32.76732824
  1 36 1     131.76227761
  1 36 100      33.75727773
  1 37 1     132.75222710
  1 37 100      34.74722723
  1 38 1     133.74217659
  1 38 100      35.73717672
  1 39 1     134.73212609
  1 39 100      36.72712621
  1 40 1     135.72207558
  1 40 100      37.71707571
  1 41 1     136.71202507
  1 41 100      38.70702520
  1 42 1     137.70197457
  1 42 100      39.69697470
  1 43 1     138.69192406
  1 43 100      40.68692419
  1 44 1     139.68187356
  1 44 100      41.67687368
  1 45 1     140.67182305
  1 45 100      42.66682318
  1 46 1     141.66177254
  1 46 100      43.65677267
  1 47 1     142.65172204
  1 47 100      44.64672216
  1 48 1     143.64167153
  1 48 100      45.63667166
  1 49 1     144.63162102
  1 49 100      46.62662115
  1 50 1     145.62157052
  1 50 100      47.61657065
  1 51 1     146.61152001
  1 51 100      48.60652014
  1 52 1     147.60146950
  1 52 100      49.59646963
  1 53 1     148.59141900
  1 53 100      50.58641913
  1 54 1     149.58136849
  1 54 100      51.57636862
  1 55 1     150.57131799
  1 55 100      52.56631811
  1 56 1     151.56126748
  1 56 100      53.55626761
  1 57 1     152.55121697
  1 57 100      54.54621710
  1 58 1     153.54116647
  1 58 100      55.53616659
  1 59 1     154.53111596
  1 59 100      56.52611609
  1 60 1     155.52106545
  1 60 100      57.51606558
  1 61 1     156.51101495
  1 61 100      58.50601508
  1 62 1     157.50096444
  1 62 100      59.49596457
  1 63 1     158.49091394
  1 63 100      60.48591406
  1 64 1     159.48086343
  1 64 100      61.47586356
  1 65 1     160.47081292
  1 65 100      62.46581305
  1 66 1     161.46076242
  1 66 100      63.45576254
  1 67 1     162.45071191
  1 67 100      64.44571204
  1 68 1     163.44066140
  1 68 100      65.43566153
  1 69 1     164.43061090
  1 69 100      66.42561102
  1 70 1     165.42056039
  1 70 100      67.41556052
  1 71 1     166.41050988
  1 71 100      68.40551001
  1 72 1     167.40045938
  1 72 100      69.39545951
  1 73 1     168.39040887
  1 73 100      70.38540900
  1 74 1     169.38035837
  1 74 100      71.37535849
  1 75 1     170.37030786
  1 75 100      72.36530799
  1 76 1     171.36025735
  1 76 100      73.35525748
  1 77 1     172.35020685
  1 77 100      74.34520697
  1 78 1     173.34015634
  1 78 100      75.33515647
  1 79 1     174.33010583
  1 79 100      76.32510596
  1 80 1     175.32005533
  1 80 100      77.31505545
  1 81 1     176.31000482
  1 81 100      78.30500495
  1 82 1     177.29995431
  1 82 100      79.29495444
  1 83 1     178.28990381
  1 83 100      80.28490394
  1 84 1     179.27985330
  1 84 100      81.27485343
  1 85 1     180.26980280
  1 85 100      82.26480292
  1 86 1     181.25975229
  1 86 100      83.25475242
  1 87 1     182.24970178
  1 87 100      84.24470191
  1 88 1     183.23965128
  1 88 100      85.23465140
  1 89 1     184.22960077
  1 89 100      86.22460090
  1 90 1     185.21955026
  1 90 100      87.21455039
  1 91 1     186.20949976
  1 91 100      88.20449989
  1 92 1     187.19944925
  1 92 100      89.19444938
  1 93 1     188.18939874
  1 93 100      90.18439887
  1 94 1     189.17934824
  1 94 100      91.17434837
  1 95 1     190.16929773
  1 95 100      92.16429786
  1 96 1     191.15924723
  1 96 100      93.15424735
  1 97 1     192.14919672
  1 97 100      94.14419685
  1 98 1     193.13914621
  1 98 100      95.13414634
  1 99 1     194.12909571
  1 99 100      96.12409583
  1 100 1     195.11904520
  1 100 100      97.11404533
  1 1 2      96.12409583
  1 100 2     194.12909571
  1 1 3      95.13414634
  1 100 3     193.13914621
  1 1 4      94.14419685
  1 100 4     192.14919672
  1 1 5      93.15424735
  1 100 5     191.15924723
  1 1 6      92.16429786
  1 100 6     190.16929773
  1 1 7      91.17434837
  1 100 7     189.17934824
  1 1 8      90.18439887
  1 100 8     188.18939874
  1 1 9      89.19444938
  1 100 9     187.19944925
  1 1 10      88.20449989
  1 100 10     186.20949976
  1 1 11      87.21455039
  1 100 11     185.21955026
  1 1 12      86.22460090
  1 100 12     184.22960077
  1 1 13      85.23465140
  1 100 13     183.23965128
  1 1 14      84.24470191
  1 100 14     182.24970178
  1 1 15      83.25475242
  1 100 15     181.25975229
  1 1 16      82.26480292
  1 100 16     180.26980280
  1 1 17      81.27485343
  1 100 17     179.27985330
  1 1 18      80.28490394
  1 100 18     178.28990381
  1 1 19      79.29495444
  1 100 19     177.29995431
  1 1 20      78.30500495
  1 100 20     176.31000482
  1 1 21      77.31505545
  1 100 21     175.32005533
  1 1 22      76.32510596
  1 100 22     174.33010583
  1 1 23      75.33515647
  1 100 23     173.34015634
  1 1 24      74.34520697
  1 100 24     172.35020685
  1 1 25      73.35525748
  1 100 25     171.36025735
  1 1 26      72.36530799
  1 100 26     170.37030786
  1 1 27      71.37535849
  1 100 27     169.38035837
  1 1 28      70.38540900
  1 100 28     168.39040887
  1 1 29      69.39545951
  1 100 29     167.40045938
  1 1 30      68.40551001
  1 100 30     166.41050988
  1 1 31      67.41556052
  1 100 31     165.42056039
  1 1 32      66.42561102
  1 100 32     164.43061090
  1 1 33      65.43566153
  1 100 33     163.44066140
  1 1 34      64.44571204
  1 100 34     162.45071191
  1 1 35      63.45576254
  1 100 35     161.46076242
  1 1 36      62.46581305
  1 100 36     160.47081292
  1 1 37      61.47586356
  1 100 37     159.48086343
  1 1 38      60.48591406
  1 100 38     158.49091394
  1 1 39      59.49596457
  1 100 39     157.50096444
  1 1 40      58.50601508
  1 100 40     156.51101495
  1 1 41      57.51606558
  1 100 41     155.52106545
  1 1 42      56.52611609
  1 100 42     154.53111596
  1 1 43      55.53616659
  1 100 43     153.54116647
  1 1 44      54.54621710
  1 100 44     152.55121697
  1 1 45      53.55626761
  1 100 45     151.56126748
  1 1 46      52.56631811
  1 100 46     150.57131799
  1 1 47      51.57636862
  1 100 47     149.58136849
  1 1 48      50.58641913
  1 100 48     148.59141900
  1 1 49      49.59646963
  1 100 49     147.60146950
  1 1 50      48.60652014
  1 100 50     146.61152001
  1 1 51      47.61657065
  1 100 51     145.62157052
  1 1 52      46.62662115
  1 100 52     144.63162102
  1 1 53      45.63667166
  1 100 53     143.64167153
  1 1 54      44.64672216
  1 100 54     142.65172204
  1 1 55      43.65677267
  1 100 55     141.66177254
  1 1 56      42.66682318
  1 100 56     140.67182305
  1 1 57      41.67687368
  1 100 57     139.68187356
  1 1 58      40.68692419
  1 100 58     138.69192406
  1 1 59      39.69697470
  1 100 59     137.70197457
  1 1 60      38.70702520
  1 100 60     136.71202507
  1 1 61      37.71707571
  1 100 61     135.72207558
  1 1 62      36.72712621
  1 100 62     134.73212609
  1 1 63      35.73717672
  1 100 63     133.74217659
  1 1 64      34.74722723
  1 100 64     132.75222710
  1 1 65      33.75727773
  1 100 65     131.76227761
  1 1 66      32.76732824
  1 100 66     130.77232811
  1 1 67      31.77737875
  1 100 67     129.78237862
  1 1 68      30.78742925
  1 100 68     128.79242913
  1 1 69      29.79747976
  1 100 69     127.80247963
  1 1 70      28.80753027
  1 100 70     126.81253014
  1 1 71      27.81758077
  1 100 71     125.82258064
  1 1 72      26.82763128
  1 100 72     124.83263115
  1 1 73      25.83768178
  1 100 73     123.84268166
  1 1 74      24.84773229
  1 100 74     122.85273216
  1 1 75      23.85778280
  1 100 75     121.86278267
  1 1 76      22.86783330
  1 100 76     120.87283318
  1 1 77      21.87788381
  1 100 77     119.88288368
  1 1 78      20.88793432
  1 100 78     118.89293419
  1 1 79      19.89798482
  1 100 79     117.90298470
  1 1 80      18.90803533
  1 100 80     116.91303520
  1 1 81      17.91808584
  1 100 81     115.92308571
  1 1 82      16.92813634
  1 100 82     114.93313621
  1 1 83      15.93818685
  1 100 83     113.94318672
  1 1 84      14.94823735
  1 100 84     112.95323723
  1 1 85      13.95828786
  1 100 85     111.96328773
  1 1 86      12.96833837
  1 100 86     110.97333824
  1 1 87      11.97838887
  1 100 87     109.98338875
  1 1 88      10.98843938
  1 100 88     108.99343925
  1 1 89       9.99848989
  1 100 89     108.00348976
  1 1 90       9.00854039
  1 100 90     107.01354026
  1 1 91       8.01859090
  1 100 91     106.02359077
  1 1 92       7.02864140
  1 100 92     105.03364128
  1 1 93       6.03869191
  1 100 93     104.04369178
  1 1 94       5.04874242
  1 100 94     103.05374229
  1 1 95       4.05879292
  1 100 95     102.06379280
  1 1 96       3.06884343
  1 100 96     101.07384330
  1 1 97       2.07889394
  1 100 97     100.08389381
  1 1 98       1.08894444
  1 100 98      99.09394432
  1 1 99       0.09899495
  1 100 99      98.10399482
END period  1

