# File generated by Flopy version 3.3.5 on 03/04/2022 at 11:18:27.
BEGIN options
END options

BEGIN griddata
  porosity
    CONSTANT       0.14000000
END griddata

